#	Name: ASD05740165
#	Creating user name:	WinNT
#	Creation time:	15. 06. 2019 21:02

#	Modifying user name:	WinNT
#	Modification time:	15. 06. 2019 21:02

#	Program:	/corina/corina34_cracker 3.40 0067  02.08.2006

@<TRIPOS>MOLECULE
ASD05740165
  59   64    0    0    0
SMALL
NO_CHARGES


@<TRIPOS>ATOM
   1 C1             0.7636    -1.5332    -1.5885 C.3     
   2 N2             0.1630    -0.6849    -0.5496 N.3     
   3 C3            -1.1760    -1.0333    -0.3290 C.ar    
   4 C4            -1.4993    -2.3160     0.0898 C.ar    
   5 C5            -2.8197    -2.6599     0.3074 C.ar    
   6 C6            -3.8239    -1.7226     0.1073 C.ar    
   7 C7            -3.5020    -0.4382    -0.3124 C.ar    
   8 C8            -2.1810    -0.0917    -0.5243 C.ar    
   9 N9            -5.1621    -2.0722     0.3282 N.pl3   
  10 C10           -5.4855    -2.9702     1.3265 C.ar    
  11 N11           -4.5231    -3.4015     2.1345 N.ar    
  12 N12           -6.7448    -3.3648     1.4453 N.ar    
  13 C13           -7.0913    -4.2265     2.3928 C.ar    
  14 C14           -6.0934    -4.7110     3.2671 C.ar    
  15 C15           -4.7785    -4.2604     3.1051 C.ar    
  16 N16           -8.3857    -4.6531     2.5411 N.am    
  17 C17           -8.7195    -5.5264     3.5079 C.2     
  18 C18           -7.7637    -6.0407     4.4071 C.2     
  19 C19           -6.4628    -5.6598     4.3131 C.2     
  20 C20           -9.4202    -4.1501     1.6339 C.3     
  21 O21           -9.8807    -5.8827     3.6095 O.2     
  22 C22            0.9379    -0.7557     0.6970 C.3     
  23 C23            2.3721    -0.2926     0.4301 C.3     
  24 N24            2.9726    -1.1409    -0.6088 N.3     
  25 C25            2.1978    -1.0702    -1.8554 C.3     
  26 F26           -1.8669     1.1574    -0.9321 F       
  27 C27          -10.0785    -5.3092     0.8558 C.3     
  28 C28          -11.5319    -4.9125     0.7088 C.ar    
  29 C29          -11.8365    -3.9111     1.6115 C.ar    
  30 C30          -10.6088    -3.5663     2.4269 C.3     
  31 C31          -12.5105    -5.3904    -0.1469 C.ar    
  32 C32          -13.7886    -4.8693    -0.1011 C.ar    
  33 C33          -14.0934    -3.8677     0.8018 C.ar    
  34 C34          -13.1190    -3.3902     1.6562 C.ar    
  35 H35            0.7730    -2.5697    -1.2512 H       
  36 H36            0.1794    -1.4541    -2.5053 H       
  37 H37           -0.7187    -3.0459     0.2454 H       
  38 H38           -3.0706    -3.6586     0.6331 H       
  39 H39           -4.2834     0.2908    -0.4688 H       
  40 H40           -5.8617    -1.6836    -0.2200 H       
  41 H41           -3.9903    -4.6101     3.7554 H       
  42 H42           -8.0659    -6.7404     5.1722 H       
  43 H43           -5.7215    -6.0470     4.9965 H       
  44 H44           -9.0062    -3.4097     0.9493 H       
  45 H45            0.4807    -0.1097     1.4465 H       
  46 H46            0.9492    -1.7833     1.0603 H       
  47 H47            2.3627     0.7438     0.0928 H       
  48 H48            2.9563    -0.3718     1.3469 H       
  49 H49            3.9370    -0.8901    -0.7677 H       
  50 H50            2.6550    -1.7161    -2.6050 H       
  51 H51            2.1864    -0.0425    -2.2187 H       
  52 H52           -9.6150    -5.4178    -0.1247 H       
  53 H53           -9.9952    -6.2384     1.4195 H       
  54 H54          -10.6681    -4.0267     3.4131 H       
  55 H55          -10.5074    -2.4849     2.5190 H       
  56 H56          -12.2732    -6.1728    -0.8525 H       
  57 H57          -14.5492    -5.2437    -0.7702 H       
  58 H58          -15.0923    -3.4589     0.8389 H       
  59 H59          -13.3578    -2.6077     2.3612 H       
@<TRIPOS>BOND
   1    1    2 1
   2    1   25 1
   3    1   35 1
   4    1   36 1
   5    2    3 1
   6    2   22 1
   7    3    4 ar
   8    3    8 ar
   9    4    5 ar
  10    4   37 1
  11    5    6 ar
  12    5   38 1
  13    6    7 ar
  14    6    9 1
  15    7    8 ar
  16    7   39 1
  17    8   26 1
  18    9   10 1
  19    9   40 1
  20   10   11 ar
  21   10   12 ar
  22   11   15 ar
  23   12   13 ar
  24   13   14 ar
  25   13   16 1
  26   14   15 ar
  27   14   19 1
  28   15   41 1
  29   16   17 am
  30   16   20 1
  31   17   18 1
  32   17   21 2
  33   18   19 2
  34   18   42 1
  35   19   43 1
  36   20   27 1
  37   20   30 1
  38   20   44 1
  39   22   23 1
  40   22   45 1
  41   22   46 1
  42   23   24 1
  43   23   47 1
  44   23   48 1
  45   24   25 1
  46   24   49 1
  47   25   50 1
  48   25   51 1
  49   27   28 1
  50   27   52 1
  51   27   53 1
  52   28   29 ar
  53   28   31 ar
  54   29   30 1
  55   29   34 ar
  56   30   54 1
  57   30   55 1
  58   31   32 ar
  59   31   56 1
  60   32   33 ar
  61   32   57 1
  62   33   34 ar
  63   33   58 1
  64   34   59 1

#	End of record

