#	Name: ASD00960023
#	Creating user name:	WinNT
#	Creation time:	15. 06. 2019 18:53

#	Modifying user name:	WinNT
#	Modification time:	15. 06. 2019 18:53

#	Program:	/corina/corina34_cracker 3.40 0067  02.08.2006

@<TRIPOS>MOLECULE
ASD00960023
  35   37    0    0    0
SMALL
NO_CHARGES


@<TRIPOS>ATOM
   1 F1             1.2412    -0.6034     0.2184 F       
   2 C2            -0.0292     1.4559     0.1506 C.3     
   3 C3            -0.0584    -0.0889     0.1597 C.3     
   4 C4            -0.8390    -0.4421     1.4451 C.3     
   5 O5            -1.6480     0.7230     1.7173 O.3     
   6 C6            -0.7956     1.8533     1.4316 C.3     
   7 C7            -1.6380     3.1058     1.1814 C.3     
   8 C8            -1.7148    -1.6463     1.2129 C.2     
   9 C9            -1.3179    -2.9420     1.3196 C.2     
  10 N10           -3.0164    -1.6108     0.8724 N.pl3   
  11 C11           -3.4736    -2.9089     0.7495 C.2     
  12 C12           -2.4159    -3.7527     1.0279 C.2     
  13 N13           -3.9188    -0.5634     0.6397 N.2     
  14 C14           -5.1550    -0.8259     0.3162 C.2     
  15 N15           -5.6097    -2.0719     0.1941 N.2     
  16 C16           -4.8262    -3.1184     0.3950 C.2     
  17 O17           -2.3044     3.4807     2.3886 O.3     
  18 N18           -5.3232    -4.3992     0.2617 N.pl3   
  19 C19           -2.4423    -5.2594     1.0175 C.3     
  20 O20            1.3172     1.9316     0.2048 O.3     
  21 *21            1.9015     2.1447    -1.0607 Du      
  22 H22           -0.5344     1.8422    -0.7346 H       
  23 H23           -0.5802    -0.4662    -0.7198 H       
  24 H24           -0.1497    -0.6263     2.2691 H       
  25 H25           -0.0997     2.0211     2.2536 H       
  26 H26           -0.9906     3.9200     0.8559 H       
  27 H27           -2.3772     2.8979     0.4078 H       
  28 H28           -0.3279    -3.2837     1.5834 H       
  29 H29           -5.8337    -0.0041     0.1417 H       
  30 H30           -2.8581     4.2689     2.3037 H       
  31 H31           -6.2733    -4.5389     0.1246 H       
  32 H32           -4.7225    -5.1595     0.3050 H       
  33 H33           -2.2879    -5.6185    -0.0000 H       
  34 H34           -1.6501    -5.6411     1.6616 H       
  35 H35           -3.4079    -5.6084     1.3834 H       
@<TRIPOS>BOND
   1    1    3 1
   2    2    3 1
   3    2   20 1
   4    2    6 1
   5    2   22 1
   6    3    4 1
   7    3   23 1
   8    4    5 1
   9    4    8 1
  10    4   24 1
  11    5    6 1
  12    6    7 1
  13    6   25 1
  14    7   17 1
  15    7   26 1
  16    7   27 1
  17    8    9 2
  18    8   10 1
  19    9   12 1
  20    9   28 1
  21   10   11 1
  22   10   13 1
  23   11   12 2
  24   11   16 1
  25   12   19 1
  26   13   14 2
  27   14   15 1
  28   14   29 1
  29   15   16 2
  30   16   18 1
  31   17   30 1
  32   18   31 1
  33   18   32 1
  34   19   33 1
  35   19   34 1
  36   19   35 1
  37   20   21 1

#	End of record

