#	Name: ASD01880416
#	Creating user name:	WinNT
#	Creation time:	15. 06. 2019 19:40

#	Modifying user name:	WinNT
#	Modification time:	15. 06. 2019 19:40

#	Program:	/corina/corina34_cracker 3.40 0067  02.08.2006

@<TRIPOS>MOLECULE
ASD01880416
  41   41    0    0    0
SMALL
NO_CHARGES


@<TRIPOS>ATOM
   1 O1            -0.0161     1.3381     0.0094 O.3     
   2 C2             0.0021    -0.0041     0.0020 C.2     
   3 O3             1.0565    -0.5939    -0.0112 O.2     
   4 C4            -1.2926    -0.7753     0.0102 C.3     
   5 O5            -1.0125    -2.1765     0.0000 O.3     
   6 C6            -2.0789    -3.0189     0.0057 C.ar    
   7 C7            -1.8798    -4.3919    -0.0036 C.ar    
   8 C8            -2.9655    -5.2461     0.0022 C.ar    
   9 C9            -4.2496    -4.7338     0.0171 C.ar    
  10 C10           -4.4507    -3.3659     0.0259 C.ar    
  11 C11           -3.3683    -2.5075     0.0265 C.ar    
  12 C12           -5.4321    -5.6680     0.0233 C.3     
  13 P13           -5.8926    -6.0539     1.7445 P.3     
  14 O14           -6.2479    -4.8036     2.4523 O.2     
  15 C15           -7.3231    -7.1840     1.7520 C.3     
  16 C16           -7.7875    -7.4092     3.1923 C.3     
  17 C17           -8.9881    -8.3576     3.1986 C.3     
  18 C18           -9.3687    -8.6766     4.6214 C.2     
  19 O19          -10.2951    -8.1018     5.1424 O.2     
  20 O20           -8.6787    -9.5994     5.3100 O.3     
  21 N21          -10.1223    -7.7163     2.5203 N.3     
  22 O22           -4.6495    -6.7568     2.4879 O.3     
  23 O23           -6.5355    -5.0441    -0.6365 O.3     
  24 H24            0.8394     1.7888     0.0037 H       
  25 H25           -1.8592    -0.5245     0.9070 H       
  26 H26           -1.8762    -0.5150    -0.8728 H       
  27 H27           -0.8769    -4.7925    -0.0156 H       
  28 H28           -2.8110    -6.3150    -0.0054 H       
  29 H29           -5.4547    -2.9682     0.0369 H       
  30 H30           -3.5259    -1.4390     0.0334 H       
  31 H31           -5.1705    -6.5888    -0.4980 H       
  32 H32           -8.1356    -6.7455     1.1726 H       
  33 H33           -7.0350    -8.1377     1.3098 H       
  34 H34           -6.9750    -7.8477     3.7717 H       
  35 H35           -8.0756    -6.4555     3.6345 H       
  36 H36           -8.7264    -9.2784     2.6773 H       
  37 H37           -8.9601    -9.7698     6.2193 H       
  38 H38          -10.9075    -8.3465     2.4543 H       
  39 H39          -10.3842    -6.8598     2.9850 H       
  40 H40           -4.3620    -7.5837     2.0772 H       
  41 H41           -6.8230    -4.2172    -0.2258 H       
@<TRIPOS>BOND
   1    1    2 1
   2    1   24 1
   3    2    3 2
   4    2    4 1
   5    4    5 1
   6    4   25 1
   7    4   26 1
   8    5    6 1
   9    6    7 ar
  10    6   11 ar
  11    7    8 ar
  12    7   27 1
  13    8    9 ar
  14    8   28 1
  15    9   10 ar
  16    9   12 1
  17   10   11 ar
  18   10   29 1
  19   11   30 1
  20   12   13 1
  21   12   23 1
  22   12   31 1
  23   13   14 2
  24   13   15 1
  25   13   22 1
  26   15   16 1
  27   15   32 1
  28   15   33 1
  29   16   17 1
  30   16   34 1
  31   16   35 1
  32   17   18 1
  33   17   21 1
  34   17   36 1
  35   18   19 2
  36   18   20 1
  37   20   37 1
  38   21   38 1
  39   21   39 1
  40   22   40 1
  41   23   41 1

#	End of record

