#	Name: ASD01881317
#	Creating user name:	WinNT
#	Creation time:	15. 06. 2019 19:42

#	Modifying user name:	WinNT
#	Modification time:	15. 06. 2019 19:42

#	Program:	/corina/corina34_cracker 3.40 0067  02.08.2006

@<TRIPOS>MOLECULE
ASD01881317
  54   58    0    0    0
SMALL
NO_CHARGES


@<TRIPOS>ATOM
   1 C1            -0.0167     1.3789     0.0096 C.2     
   2 C2             0.0021    -0.0041     0.0020 C.2     
   3 C3            -1.2229    -0.7132     0.0099 C.2     
   4 C4            -2.3913    -0.0452     0.0246 C.2     
   5 N5            -2.4195     1.3211     0.0322 N.pl3   
   6 C6            -1.2557     2.0462     0.0309 C.2     
   7 C7            -3.4509     2.2218     0.0468 C.2     
   8 C8            -2.9029     3.4569     0.0482 C.2     
   9 N9            -1.5738     3.3342     0.0394 N.2     
  10 C10            1.2907    -0.7354    -0.0147 C.ar    
  11 C11            1.6536    -1.5260     1.0683 C.ar    
  12 C12            2.8689    -2.2092     1.0403 C.ar    
  13 C13            3.7150    -2.0940    -0.0786 C.ar    
  14 C14            3.3307    -1.2958    -1.1529 C.ar    
  15 C15            2.1381    -0.6333    -1.1243 C.ar    
  16 Cl16           1.4676     2.2791     0.0003 Cl      
  17 C17           -4.9222     1.8963     0.0586 C.3     
  18 C18            3.5537    -3.1054     1.9758 C.2     
  19 C19            4.7125    -3.4617     1.3999 C.2     
  20 N20            4.8261    -2.8674     0.1726 N.pl3   
  21 C21            5.9615    -3.0299    -0.7388 C.3     
  22 C22            7.2396    -2.5429    -0.0532 C.3     
  23 C23            8.4254    -2.7126    -1.0051 C.3     
  24 C24            8.5757    -4.1898    -1.3741 C.3     
  25 C25            7.2976    -4.6769    -2.0597 C.3     
  26 C26            6.1118    -4.5071    -1.1078 C.3     
  27 C27            9.7615    -4.3595    -2.3260 C.3     
  28 C28           -5.4607     1.9169    -1.3734 C.3     
  29 F29           -4.7791     0.9670    -2.1416 F       
  30 F30           -6.8266     1.6148    -1.3624 F       
  31 F31           -5.2687     3.1880    -1.9254 F       
  32 H32           -1.2201    -1.7932     0.0037 H       
  33 H33           -3.3198    -0.5968     0.0301 H       
  34 H34           -3.4493     4.3884     0.0581 H       
  35 H35            1.0006    -1.6104     1.9243 H       
  36 H36            3.9768    -1.2040    -2.0135 H       
  37 H37            1.8489    -0.0170    -1.9626 H       
  38 H38           -5.0718     0.9060     0.4888 H       
  39 H39           -5.4533     2.6364     0.6572 H       
  40 H40            3.1943    -3.4195     2.9446 H       
  41 H41            5.4467    -4.1201     1.8400 H       
  42 H42            5.7885    -2.4455    -1.6425 H       
  43 H43            7.1325    -1.4905     0.2097 H       
  44 H44            7.4126    -3.1273     0.8504 H       
  45 H45            8.2524    -2.1281    -1.9088 H       
  46 H46            9.3359    -2.3656    -0.5167 H       
  47 H47            8.7487    -4.7742    -0.4705 H       
  48 H48            7.1246    -4.0924    -2.9634 H       
  49 H49            7.4047    -5.7292    -2.3226 H       
  50 H50            6.2848    -5.0916    -0.2042 H       
  51 H51            5.2013    -4.8541    -1.5962 H       
  52 H52           10.6721    -4.0125    -1.8376 H       
  53 H53            9.8686    -5.4119    -2.5889 H       
  54 H54            9.5885    -3.7751    -3.2297 H       
@<TRIPOS>BOND
   1    1    2 2
   2    1   16 1
   3    1    6 1
   4    2    3 1
   5    2   10 1
   6    3    4 2
   7    3   32 1
   8    4    5 1
   9    4   33 1
  10    5    6 1
  11    5    7 1
  12    6    9 2
  13    7    8 2
  14    7   17 1
  15    8    9 1
  16    8   34 1
  17   10   11 ar
  18   10   15 ar
  19   11   12 ar
  20   11   35 1
  21   12   13 ar
  22   12   18 1
  23   13   14 ar
  24   13   20 1
  25   14   15 ar
  26   14   36 1
  27   15   37 1
  28   17   28 1
  29   17   38 1
  30   17   39 1
  31   18   19 2
  32   18   40 1
  33   19   20 1
  34   19   41 1
  35   20   21 1
  36   21   22 1
  37   21   26 1
  38   21   42 1
  39   22   23 1
  40   22   43 1
  41   22   44 1
  42   23   24 1
  43   23   45 1
  44   23   46 1
  45   24   25 1
  46   24   27 1
  47   24   47 1
  48   25   26 1
  49   25   48 1
  50   25   49 1
  51   26   50 1
  52   26   51 1
  53   27   52 1
  54   27   53 1
  55   27   54 1
  56   28   29 1
  57   28   30 1
  58   28   31 1

#	End of record

