#	Name: ASD01911136
#	Creating user name:	WinNT
#	Creation time:	15. 06. 2019 19:57

#	Modifying user name:	WinNT
#	Modification time:	15. 06. 2019 19:57

#	Program:	/corina/corina34_cracker 3.40 0067  02.08.2006

@<TRIPOS>MOLECULE
ASD01911136
  47   50    0    0    0
SMALL
NO_CHARGES


@<TRIPOS>ATOM
   1 C1            -0.0921     1.4034     0.0749 C.2     
   2 O2            -0.0628     0.1889     0.1309 O.2     
   3 O3             2.9432     3.2866     0.6048 O.3     
   4 N4             2.9784     3.2417    -0.6004 N.2     
   5 C5             1.9664     2.5960    -1.0998 C.2     
   6 C6             1.1661     2.1710     0.0590 C.2     
   7 C7             1.8806     2.6661     1.1225 C.2     
   8 C8             1.5340     2.5349     2.5832 C.3     
   9 C9             1.6751     2.3384    -2.5557 C.3     
  10 N10           -1.2750     2.0471     0.0218 N.am    
  11 C11           -2.5374     1.2954     0.0307 C.3     
  12 C12           -3.3778     1.7287    -1.1746 C.3     
  13 C13           -3.5514     3.2490    -1.1504 C.3     
  14 C14           -2.1806     3.9223    -1.2502 C.3     
  15 C15           -1.3268     3.5141    -0.0401 C.3     
  16 O16           -5.6304     1.1943    -0.1292 O.3     
  17 N17           -6.6136     0.5307    -0.3821 N.2     
  18 C18           -6.4607    -0.0826    -1.5235 C.2     
  19 N19           -5.2460     0.2577    -2.0015 N.2     
  20 C20           -4.7301     1.0670    -1.1088 C.2     
  21 O21           -7.3564    -0.9089    -2.1186 O.3     
  22 C22           -8.4774    -1.2401    -1.4255 C.ar    
  23 C23           -8.6084    -0.8651    -0.0963 C.ar    
  24 C24           -9.7506    -1.2037     0.6068 C.ar    
  25 C25          -10.7619    -1.9164    -0.0162 C.ar    
  26 C26          -10.6317    -2.2901    -1.3405 C.ar    
  27 C27           -9.4949    -1.9489    -2.0478 C.ar    
  28 F28           -9.8796    -0.8397     1.9015 F       
  29 H29            2.2951     3.0334     3.1835 H       
  30 H30            0.5644     2.9966     2.7695 H       
  31 H31            1.4918     1.4797     2.8532 H       
  32 H32            2.1397     1.4001    -2.8587 H       
  33 H33            0.5972     2.2749    -2.7049 H       
  34 H34            2.0776     3.1538    -3.1567 H       
  35 H35           -2.3275     0.2279    -0.0350 H       
  36 H36           -3.0820     1.5069     0.9509 H       
  37 H37           -2.8728     1.4348    -2.0947 H       
  38 H38           -4.1697     3.5574    -1.9934 H       
  39 H39           -4.0341     3.5446    -0.2189 H       
  40 H40           -1.6869     3.6077    -2.1696 H       
  41 H41           -2.3067     5.0050    -1.2564 H       
  42 H42           -1.7747     3.9028     0.8745 H       
  43 H43           -0.3178     3.9110    -0.1525 H       
  44 H44           -7.8194    -0.3098     0.3890 H       
  45 H45          -11.6531    -2.1806     0.5336 H       
  46 H46          -11.4215    -2.8457    -1.8242 H       
  47 H47           -9.3966    -2.2374    -3.0839 H       
@<TRIPOS>BOND
   1    1    2 2
   2    1    6 1
   3    1   10 am
   4    3    4 1
   5    3    7 1
   6    4    5 2
   7    5    6 1
   8    5    9 1
   9    6    7 2
  10    7    8 1
  11    8   29 1
  12    8   30 1
  13    8   31 1
  14    9   32 1
  15    9   33 1
  16    9   34 1
  17   10   11 1
  18   10   15 1
  19   11   12 1
  20   11   35 1
  21   11   36 1
  22   12   13 1
  23   12   20 1
  24   12   37 1
  25   13   14 1
  26   13   38 1
  27   13   39 1
  28   14   15 1
  29   14   40 1
  30   14   41 1
  31   15   42 1
  32   15   43 1
  33   16   17 1
  34   16   20 1
  35   17   18 2
  36   18   19 1
  37   18   21 1
  38   19   20 2
  39   21   22 1
  40   22   23 ar
  41   22   27 ar
  42   23   24 ar
  43   23   44 1
  44   24   25 ar
  45   24   28 1
  46   25   26 ar
  47   25   45 1
  48   26   27 ar
  49   26   46 1
  50   27   47 1

#	End of record

