#	Name: ASD01885348
#	Creating user name:	WinNT
#	Creation time:	15. 06. 2019 19:49

#	Modifying user name:	WinNT
#	Modification time:	15. 06. 2019 19:49

#	Program:	/corina/corina34_cracker 3.40 0067  02.08.2006

@<TRIPOS>MOLECULE
ASD01885348
  53   57    0    0    0
SMALL
NO_CHARGES


@<TRIPOS>ATOM
   1 C1            -0.0164     1.3569     0.0095 C.ar    
   2 C2             0.0021    -0.0041     0.0020 C.ar    
   3 C3             1.2044    -0.7071    -0.0132 C.ar    
   4 C4             2.3989    -0.0488    -0.0206 C.ar    
   5 C5             2.4171     1.3495    -0.0133 C.ar    
   6 C6             1.1963     2.0710     0.0018 C.ar    
   7 C7             3.6741     2.0990    -0.0212 C.ar    
   8 C8             3.5882     3.4897    -0.0134 C.ar    
   9 C9             2.3311     4.0989     0.0013 C.ar    
  10 N10            1.2101     3.4041     0.0088 N.ar    
  11 C11            4.9773     1.4110    -0.0363 C.2     
  12 C12            2.2544     5.5797     0.0100 C.2     
  13 O13            3.2737     6.2409     0.0042 O.2     
  14 N14            1.0539     6.1922     0.0242 N.am    
  15 C15           -1.2999    -0.7629     0.0109 C.3     
  16 N16           -1.7367    -1.0020    -1.3712 N.3     
  17 C17           -2.8699    -1.9377    -1.4111 C.3     
  18 C18           -3.3302    -2.1117    -2.8608 C.3     
  19 O19           -2.2288    -2.5611    -3.6548 O.3     
  20 C20           -1.1078    -1.6731    -3.6392 C.3     
  21 C21           -0.6250    -1.4947    -2.1973 C.3     
  22 C22            5.3622     0.4125     0.7930 C.2     
  23 N23            6.5772    -0.0323     0.5715 N.2     
  24 C24            7.2457     0.5202    -0.3866 C.2     
  25 S25            6.3104     1.7355    -1.1420 S.3     
  26 C26            8.6493     0.1430    -0.7849 C.3     
  27 C27           -4.4568    -3.1453    -2.9186 C.3     
  28 F28           -5.5319    -2.7074    -2.1378 F       
  29 F29           -4.8769    -3.3037    -4.2436 F       
  30 F30           -3.9919    -4.3699    -2.4272 F       
  31 C31            9.7463     0.2868     0.2718 C.3     
  32 C32            9.2564    -1.1035    -0.1379 C.3     
  33 H33           -0.9576     1.8865     0.0169 H       
  34 H34            1.1906    -1.7870    -0.0189 H       
  35 H35            3.3251    -0.6041    -0.0317 H       
  36 H36            4.4852     4.0911    -0.0184 H       
  37 H37            0.2401     5.6644     0.0288 H       
  38 H38            1.0038     7.1609     0.0299 H       
  39 H39           -1.1607    -1.7175     0.5182 H       
  40 H40           -2.0568    -0.1796     0.5354 H       
  41 H41           -2.5597    -2.9024    -1.0094 H       
  42 H42           -3.6908    -1.5410    -0.8137 H       
  43 H43           -3.6907    -1.1576    -3.2453 H       
  44 H44           -0.3030    -2.0922    -4.2432 H       
  45 H45           -1.4036    -0.7062    -4.0462 H       
  46 H46            0.1929    -0.7745    -2.1738 H       
  47 H47           -0.2789    -2.4522    -1.8082 H       
  48 H48            4.7249     0.0165     1.5698 H       
  49 H49            8.9169     0.3541    -1.8202 H       
  50 H50           10.7358     0.5922    -0.0684 H       
  51 H51            9.4529     0.6543     1.2551 H       
  52 H52            8.6406    -1.6507     0.5759 H       
  53 H53            9.9236    -1.7128    -0.7476 H       
@<TRIPOS>BOND
   1    1    2 ar
   2    1    6 ar
   3    1   33 1
   4    2    3 ar
   5    2   15 1
   6    3    4 ar
   7    3   34 1
   8    4    5 ar
   9    4   35 1
  10    5    7 ar
  11    5    6 ar
  12    6   10 ar
  13    7    8 ar
  14    7   11 1
  15    8    9 ar
  16    8   36 1
  17    9   10 ar
  18    9   12 1
  19   11   22 2
  20   11   25 1
  21   12   13 2
  22   12   14 am
  23   14   37 1
  24   14   38 1
  25   15   16 1
  26   15   39 1
  27   15   40 1
  28   16   17 1
  29   16   21 1
  30   17   18 1
  31   17   41 1
  32   17   42 1
  33   18   19 1
  34   18   27 1
  35   18   43 1
  36   19   20 1
  37   20   21 1
  38   20   44 1
  39   20   45 1
  40   21   46 1
  41   21   47 1
  42   22   23 1
  43   22   48 1
  44   23   24 2
  45   24   25 1
  46   24   26 1
  47   26   31 1
  48   26   32 1
  49   26   49 1
  50   27   28 1
  51   27   29 1
  52   27   30 1
  53   31   32 1
  54   31   50 1
  55   31   51 1
  56   32   52 1
  57   32   53 1

#	End of record

