#	Name: ASD01870686
#	Creating user name:	WinNT
#	Creation time:	15. 06. 2019 19:39

#	Modifying user name:	WinNT
#	Modification time:	15. 06. 2019 19:39

#	Program:	/corina/corina34_cracker 3.40 0067  02.08.2006

@<TRIPOS>MOLECULE
ASD01870686
  42   45    0    0    0
SMALL
NO_CHARGES


@<TRIPOS>ATOM
   1 C1            -0.0175     1.4475     0.0142 C.2     
   2 C2             0.0020    -0.0040    -0.0008 C.2     
   3 C3             1.2281    -0.5353    -0.0717 C.2     
   4 S4             2.4386     0.6592    -0.1251 S.3     
   5 C5             1.2694     1.9672    -0.0497 C.2     
   6 C6            -1.2301    -0.8268     0.0577 C.ar    
   7 C7            -1.4315    -1.8502    -0.8661 C.ar    
   8 C8            -2.5845    -2.6150    -0.8060 C.ar    
   9 C9            -3.5360    -2.3612     0.1727 C.ar    
  10 C10           -3.3369    -1.3462     1.0895 C.ar    
  11 C11           -2.1879    -0.5824     1.0408 C.ar    
  12 N12           -1.0678     2.3087     0.0841 N.2     
  13 C13            1.4388     3.3734    -0.0448 C.2     
  14 N14            0.3426     4.1567     0.0219 N.am    
  15 C15           -0.8944     3.5946     0.0871 C.2     
  16 C16            0.4786     5.5518     0.0285 C.ar    
  17 C17            1.0623     6.1876     1.1163 C.ar    
  18 C18            1.1960     7.5617     1.1222 C.ar    
  19 C19            0.7472     8.3073     0.0416 C.ar    
  20 C20            0.1639     7.6726    -1.0456 C.ar    
  21 C21            0.0349     6.2981    -1.0552 C.ar    
  22 O22            2.5533     3.8661    -0.0994 O.2     
  23 O23            0.8787     9.6604     0.0482 O.3     
  24 C24            0.3949    10.3648    -1.0971 C.3     
  25 O25           -2.7848    -3.6138    -1.7056 O.3     
  26 C26           -3.9961    -4.3623    -1.5848 C.3     
  27 H27            1.4260    -1.5968    -0.0922 H       
  28 H28           -0.6907    -2.0462    -1.6272 H       
  29 H29           -4.4347    -2.9586     0.2177 H       
  30 H30           -4.0803    -1.1527     1.8486 H       
  31 H31           -2.0331     0.2071     1.7613 H       
  32 H32           -1.7593     4.2389     0.1436 H       
  33 H33            1.4113     5.6074     1.9576 H       
  34 H34            1.6496     8.0564     1.9683 H       
  35 H35           -0.1852     8.2535    -1.8864 H       
  36 H36           -0.4148     5.8037    -1.9036 H       
  37 H37            0.9267    10.0232    -1.9851 H       
  38 H38           -0.6717    10.1748    -1.2168 H       
  39 H39            0.5608    11.4338    -0.9630 H       
  40 H40           -4.0325    -4.8388    -0.6052 H       
  41 H41           -4.8493    -3.6931    -1.6954 H       
  42 H42           -4.0302    -5.1260    -2.3618 H       
@<TRIPOS>BOND
   1    1    2 1
   2    1    5 2
   3    1   12 1
   4    2    3 2
   5    2    6 1
   6    3    4 1
   7    3   27 1
   8    4    5 1
   9    5   13 1
  10    6    7 ar
  11    6   11 ar
  12    7    8 ar
  13    7   28 1
  14    8    9 ar
  15    8   25 1
  16    9   10 ar
  17    9   29 1
  18   10   11 ar
  19   10   30 1
  20   11   31 1
  21   12   15 2
  22   13   14 am
  23   13   22 2
  24   14   15 1
  25   14   16 1
  26   15   32 1
  27   16   17 ar
  28   16   21 ar
  29   17   18 ar
  30   17   33 1
  31   18   19 ar
  32   18   34 1
  33   19   20 ar
  34   19   23 1
  35   20   21 ar
  36   20   35 1
  37   21   36 1
  38   23   24 1
  39   24   37 1
  40   24   38 1
  41   24   39 1
  42   25   26 1
  43   26   40 1
  44   26   41 1
  45   26   42 1

#	End of record

