#	Name: ASD01881450
#	Creating user name:	WinNT
#	Creation time:	15. 06. 2019 19:42

#	Modifying user name:	WinNT
#	Modification time:	15. 06. 2019 19:42

#	Program:	/corina/corina34_cracker 3.40 0067  02.08.2006

@<TRIPOS>MOLECULE
ASD01881450
  49   53    0    0    0
SMALL
NO_CHARGES


@<TRIPOS>ATOM
   1 Cl1            0.7315     9.0530     0.2790 Cl      
   2 C2            -0.0365     2.1601    -0.9279 C.3     
   3 C3             1.2082    10.1599     4.3059 C.ar    
   4 C4             1.4109     9.1475     3.3932 C.ar    
   5 C5             0.0032    10.2457     4.9946 C.ar    
   6 C6            -1.0000     9.3107     4.7646 C.ar    
   7 C7            -0.8022     8.2963     3.8530 C.ar    
   8 C8             0.4059     8.2080     3.1606 C.ar    
   9 C9             0.6210     7.1190     2.1799 C.2     
  10 C10            0.7810     7.4099     0.8368 C.2     
  11 C11            0.6711     5.7700     2.6084 C.2     
  12 C12            0.8666     4.7819     1.7157 C.2     
  13 N13            1.0205     5.0589     0.3873 N.pl3   
  14 C14            0.9840     6.3541    -0.0695 C.2     
  15 C15            1.2271     4.2828    -0.7123 C.2     
  16 N16            1.3013     5.0785    -1.7479 N.2     
  17 N17            1.1600     6.3036    -1.3810 N.2     
  18 C18            1.3482     2.7808    -0.7325 C.3     
  19 N19           -0.1995    11.2721     5.9189 N.pl3   
  20 C20           -1.4823    11.7669     6.1397 C.ar    
  21 C21           -1.8421    12.2938     7.3815 C.ar    
  22 C22           -2.4367    11.7539     5.1257 C.ar    
  23 C23           -3.1207    12.7747     7.5625 C.ar    
  24 N24           -4.0031    12.7422     6.5806 N.ar    
  25 C25           -3.7015    12.2563     5.3865 C.ar    
  26 C26           -0.1128     0.6410    -1.0936 C.3     
  27 C27           -0.5887     1.2937     0.2058 C.3     
  28 O28           -4.6428    12.2449     4.4093 O.3     
  29 C29           -5.9292    12.7709     4.7415 C.3     
  30 H30           -0.7472     2.7642    -1.4920 H       
  31 H31            1.9874    10.8848     4.4896 H       
  32 H32            2.3468     9.0815     2.8583 H       
  33 H33           -1.9348     9.3793     5.3011 H       
  34 H34           -1.5817     7.5703     3.6747 H       
  35 H35            0.5520     5.5334     3.6554 H       
  36 H36            0.9030     3.7570     2.0543 H       
  37 H37            1.7702     2.4376     0.2120 H       
  38 H38            2.0002     2.4799    -1.5525 H       
  39 H39            0.5532    11.6405     6.4073 H       
  40 H40           -1.1272    12.3239     8.1904 H       
  41 H41           -2.1945    11.3584     4.1503 H       
  42 H42           -3.4051    13.1836     8.5208 H       
  43 H43           -0.8739     0.2457    -1.7663 H       
  44 H44            0.8235     0.0838    -1.0634 H       
  45 H45            0.0345     1.1659     1.0909 H       
  46 H46           -1.6628     1.3278     0.3879 H       
  47 H47           -6.5850    12.7022     3.8736 H       
  48 H48           -6.3548    12.1972     5.5648 H       
  49 H49           -5.8291    13.8146     5.0395 H       
@<TRIPOS>BOND
   1    1   10 1
   2    2   26 1
   3    2   18 1
   4    2   27 1
   5    2   30 1
   6    3    4 ar
   7    3    5 ar
   8    3   31 1
   9    4    8 ar
  10    4   32 1
  11    5    6 ar
  12    5   19 1
  13    6    7 ar
  14    6   33 1
  15    7    8 ar
  16    7   34 1
  17    8    9 1
  18    9   10 2
  19    9   11 1
  20   10   14 1
  21   11   12 2
  22   11   35 1
  23   12   13 1
  24   12   36 1
  25   13   14 1
  26   13   15 1
  27   14   17 2
  28   15   16 2
  29   15   18 1
  30   16   17 1
  31   18   37 1
  32   18   38 1
  33   19   20 1
  34   19   39 1
  35   20   21 ar
  36   20   22 ar
  37   21   23 ar
  38   21   40 1
  39   22   25 ar
  40   22   41 1
  41   23   24 ar
  42   23   42 1
  43   24   25 ar
  44   25   28 1
  45   26   27 1
  46   26   43 1
  47   26   44 1
  48   27   45 1
  49   27   46 1
  50   28   29 1
  51   29   47 1
  52   29   48 1
  53   29   49 1

#	End of record

