#	Name: ASD08178510
#	Creating user name:	WinNT
#	Creation time:	15. 06. 2019 21:19

#	Modifying user name:	WinNT
#	Modification time:	15. 06. 2019 21:19

#	Program:	/corina/corina34_cracker 3.40 0067  02.08.2006

@<TRIPOS>MOLECULE
ASD08178510
  31   32    0    0    0
SMALL
NO_CHARGES


@<TRIPOS>ATOM
   1 C1            -0.0155     1.2890     0.0091 C.2     
   2 N2             0.0021    -0.0041     0.0020 N.2     
   3 S3             1.6567     1.8533    -0.0038 S.3     
   4 C4             2.1881     0.1703    -0.0179 C.2     
   5 N5             1.1237    -0.5802    -0.0118 N.2     
   6 C6            -1.2455     2.1595     0.0199 C.3     
   7 C7            -1.6544     2.4468     1.4660 C.3     
   8 C8            -2.8264     3.4302     1.4789 C.3     
   9 C9            -2.0757     1.1424     2.1456 C.3     
  10 C10           -3.1543     3.8139     2.9232 C.3     
  11 C11           -4.3087     4.7825     2.9359 C.2     
  12 N12           -5.5623     4.4721     3.0030 N.2     
  13 N13           -6.4047     5.4105     3.0032 N.2     
  14 C14           -5.9510     6.6294     2.9356 C.2     
  15 S15           -4.1893     6.5421     2.8696 S.3     
  16 N16           -6.7141     7.7875     2.9237 N.pl3   
  17 N17            3.5022    -0.2731    -0.0335 N.pl3   
  18 H18           -1.0307     3.0985    -0.4903 H       
  19 H19           -2.0589     1.6455    -0.4923 H       
  20 H20           -0.8105     2.8801     2.0029 H       
  21 H21           -2.5562     4.3248     0.9177 H       
  22 H22           -3.6978     2.9630     1.0203 H       
  23 H23           -1.2407     0.4417     2.1364 H       
  24 H24           -2.3669     1.3470     3.1759 H       
  25 H25           -2.9195     0.7090     1.6087 H       
  26 H26           -3.4245     2.9193     3.4844 H       
  27 H27           -2.2829     4.2812     3.3819 H       
  28 H28           -7.6815     7.7313     2.9687 H       
  29 H29           -6.2806     8.6535     2.8705 H       
  30 H30            4.2303     0.3678    -0.0376 H       
  31 H31            3.6931    -1.2241    -0.0404 H       
@<TRIPOS>BOND
   1    1    2 2
   2    1    3 1
   3    1    6 1
   4    2    5 1
   5    3    4 1
   6    4    5 2
   7    4   17 1
   8    6    7 1
   9    6   18 1
  10    6   19 1
  11    7    8 1
  12    7    9 1
  13    7   20 1
  14    8   10 1
  15    8   21 1
  16    8   22 1
  17    9   23 1
  18    9   24 1
  19    9   25 1
  20   10   11 1
  21   10   26 1
  22   10   27 1
  23   11   12 2
  24   11   15 1
  25   12   13 1
  26   13   14 2
  27   14   15 1
  28   14   16 1
  29   16   28 1
  30   16   29 1
  31   17   30 1
  32   17   31 1

#	End of record

