#	Name: ASD04220043
#	Creating user name:	WinNT
#	Creation time:	15. 06. 2019 20:48

#	Modifying user name:	WinNT
#	Modification time:	15. 06. 2019 20:48

#	Program:	/corina/corina34_cracker 3.40 0067  02.08.2006

@<TRIPOS>MOLECULE
ASD04220043
  59   62    0    0    0
SMALL
NO_CHARGES


@<TRIPOS>ATOM
   1 C1            -0.0168     1.3877     0.0097 C.ar    
   2 C2             0.0021    -0.0041     0.0020 C.ar    
   3 C3             1.2089    -0.6756    -0.0131 C.ar    
   4 C4             2.4042     0.0405    -0.0208 C.ar    
   5 C5             2.3909     1.4393    -0.0131 C.ar    
   6 C6             1.1434     2.0989     0.0024 C.ar    
   7 S7             4.0820    -0.4966    -0.0407 S.3     
   8 C8             4.6292     1.1743    -0.0373 C.2     
   9 N9             3.6285     1.9725    -0.0229 N.2     
  10 C10            6.0730     1.6060    -0.0492 C.3     
  11 O11            6.5426     1.7354     1.2942 O.3     
  12 C12            7.8364     2.1208     1.4617 C.ar    
  13 C13            8.3598     2.2668     2.7469 C.ar    
  14 C14            8.6333     2.3621     0.3593 C.ar    
  15 C15            9.9569     2.7563     0.5386 C.ar    
  16 C16           10.4839     2.9094     1.8297 C.ar    
  17 C17            9.6729     2.6578     2.9299 C.ar    
  18 C18           11.0597     3.0878    -0.3847 C.2     
  19 C19           12.1376     3.4065     0.4262 C.2     
  20 O20           11.7731     3.2939     1.7135 O.3     
  21 C21           11.0228     3.0809    -1.8498 C.2     
  22 O22           10.7065     4.0874    -2.4549 O.2     
  23 C23           13.4750     3.8064    -0.0501 C.ar    
  24 C24           14.4865     4.1050     0.8666 C.ar    
  25 C25           15.7346     4.4783     0.4138 C.ar    
  26 C26           15.9863     4.5576    -0.9447 C.ar    
  27 C27           14.9894     4.2639    -1.8584 C.ar    
  28 C28           13.7383     3.8831    -1.4203 C.ar    
  29 O29           11.3397     1.9583    -2.5272 O.3     
  30 C30           11.6708     0.6667    -4.5649 C.3     
  31 C31           11.2815     2.0243    -3.9765 C.3     
  32 O32           -1.1652    -0.7011     0.0099 O.3     
  33 S33           -1.7105    -1.0110    -1.3768 S.o2    
  34 O34           -3.0954    -1.4200    -1.2012 O.co2   
  35 O35           -1.5972     0.2126    -2.1552 O.co2   
  36 O36           -0.8898    -2.0819    -1.9206 O.co2   
  37 O37            7.5717     2.0228     3.8280 O.3     
  38 C38            8.1673     2.1903     5.1162 C.3     
  39 H39           -0.9627     1.9089     0.0170 H       
  40 H40            1.2261    -1.7554    -0.0187 H       
  41 H41            1.1091     3.1784     0.0085 H       
  42 H42            6.6709     0.8601    -0.5729 H       
  43 H43            6.1611     2.5654    -0.5589 H       
  44 H44            8.2320     2.2452    -0.6365 H       
  45 H45           10.0676     2.7723     3.9286 H       
  46 H46           14.2913     4.0439     1.9270 H       
  47 H47           16.5172     4.7097     1.1211 H       
  48 H48           16.9656     4.8505    -1.2935 H       
  49 H49           15.1929     4.3282    -2.9171 H       
  50 H50           12.9611     3.6542    -2.1345 H       
  51 H51           11.6271     0.7163    -5.6529 H       
  52 H52           12.6839     0.4127    -4.2531 H       
  53 H53           10.9788    -0.0959    -4.2078 H       
  54 H54           10.2684     2.2784    -4.2882 H       
  55 H55           11.9735     2.7870    -4.3335 H       
  56 H56            8.5075     3.2198     5.2280 H       
  57 H57            7.4321     1.9646     5.8885 H       
  58 H58            9.0167     1.5143     5.2144 H       
  59 Na59          21.9656     9.8505    10.8885 Du      
@<TRIPOS>BOND
   1    1    2 ar
   2    1    6 ar
   3    1   39 1
   4    2    3 ar
   5    2   32 1
   6    3    4 ar
   7    3   40 1
   8    4    5 ar
   9    4    7 1
  10    5    6 ar
  11    5    9 1
  12    6   41 1
  13    7    8 1
  14    8    9 2
  15    8   10 1
  16   10   11 1
  17   10   42 1
  18   10   43 1
  19   11   12 1
  20   12   13 ar
  21   12   14 ar
  22   13   37 1
  23   13   17 ar
  24   14   15 ar
  25   14   44 1
  26   15   16 ar
  27   15   18 1
  28   16   17 ar
  29   16   20 1
  30   17   45 1
  31   18   19 2
  32   18   21 1
  33   19   20 1
  34   19   23 1
  35   21   22 2
  36   21   29 1
  37   23   24 ar
  38   23   28 ar
  39   24   25 ar
  40   24   46 1
  41   25   26 ar
  42   25   47 1
  43   26   27 ar
  44   26   48 1
  45   27   28 ar
  46   27   49 1
  47   28   50 1
  48   29   31 1
  49   30   31 1
  50   30   51 1
  51   30   52 1
  52   30   53 1
  53   31   54 1
  54   31   55 1
  55   32   33 1
  56   33   34 ar
  57   33   35 ar
  58   33   36 ar
  59   37   38 1
  60   38   56 1
  61   38   57 1
  62   38   58 1

#	End of record

