#	Name: ASD01150059
#	Creating user name:	WinNT
#	Creation time:	15. 06. 2019 19:03

#	Modifying user name:	WinNT
#	Modification time:	15. 06. 2019 19:03

#	Program:	/corina/corina34_cracker 3.40 0067  02.08.2006

@<TRIPOS>MOLECULE
ASD01150059
  46   48    0    0    0
SMALL
NO_CHARGES


@<TRIPOS>ATOM
   1 C1             0.7561     1.5038    -0.1046 C.ar    
   2 N2             0.7138     0.2176    -0.4209 N.ar    
   3 C3             1.2653    -0.6977     0.3723 C.ar    
   4 C4             1.8917    -0.2883     1.5461 C.ar    
   5 C5             1.9162     1.0707     1.8448 C.ar    
   6 N6             1.3436     1.9294     1.0041 N.ar    
   7 N7             1.2163    -2.0412     0.0343 N.3     
   8 N8             2.5287     1.5243     3.0027 N.pl3   
   9 N9             2.5167    -1.2752     2.4553 N.pl3   
  10 O10            3.6531    -1.6607     2.2472 O.2     
  11 O11            1.8944    -1.7017     3.4115 O.2     
  12 S12            0.0182     2.6792    -1.1902 S.3     
  13 C13            0.3680     4.2066    -0.2843 C.3     
  14 C14           -0.1578    -2.5545     0.1150 C.3     
  15 C15           -0.7871    -2.1664     1.4645 C.3     
  16 C16           -2.0190    -1.2957     1.1420 C.3     
  17 C17           -2.4065    -1.7051    -0.3006 C.3     
  18 C18           -1.0293    -1.9061    -0.9804 C.3     
  19 C19            1.7860    -2.2694    -1.3004 C.3     
  20 C20            3.2608    -1.8312    -1.3259 C.3     
  21 C21            4.0876    -3.0867    -1.6722 C.3     
  22 C22            3.0864    -4.0091    -2.4110 C.3     
  23 C23            1.7681    -3.7759    -1.6320 C.3     
  24 H24            2.9441     0.8930     3.6109 H       
  25 H25            2.5421     2.4730     3.2046 H       
  26 H26           -0.0338     5.0564    -0.8361 H       
  27 H27           -0.0974     4.1598     0.7002 H       
  28 H28            1.4458     4.3235    -0.1716 H       
  29 H29           -0.1584    -3.6385     0.0007 H       
  30 H30           -1.0939    -3.0620     2.0047 H       
  31 H31           -0.0729    -1.5971     2.0595 H       
  32 H32           -2.8330    -1.5158     1.8327 H       
  33 H33           -1.7594    -0.2378     1.1817 H       
  34 H34           -2.9756    -2.6347    -0.2987 H       
  35 H35           -2.9667    -0.9089    -0.7909 H       
  36 H36           -0.6098    -0.9468    -1.2835 H       
  37 H37           -1.1210    -2.5717    -1.8387 H       
  38 H38            1.2187    -1.7150    -2.0480 H       
  39 H39            3.4094    -1.0647    -2.0865 H       
  40 H40            3.5538    -1.4492    -0.3480 H       
  41 H41            4.9204    -2.8268    -2.3256 H       
  42 H42            4.4501    -3.5674    -0.7635 H       
  43 H43            2.9783    -3.7063    -3.4525 H       
  44 H44            3.3973    -5.0514    -2.3409 H       
  45 H45            1.7559    -4.3679    -0.7169 H       
  46 H46            0.9081    -4.0189    -2.2561 H       
@<TRIPOS>BOND
   1    1    2 ar
   2    1    6 ar
   3    1   12 1
   4    2    3 ar
   5    3    4 ar
   6    3    7 1
   7    4    5 ar
   8    4    9 1
   9    5    6 ar
  10    5    8 1
  11    7   14 1
  12    7   19 1
  13    8   24 1
  14    8   25 1
  15    9   10 2
  16    9   11 2
  17   12   13 1
  18   13   26 1
  19   13   27 1
  20   13   28 1
  21   14   15 1
  22   14   18 1
  23   14   29 1
  24   15   16 1
  25   15   30 1
  26   15   31 1
  27   16   17 1
  28   16   32 1
  29   16   33 1
  30   17   18 1
  31   17   34 1
  32   17   35 1
  33   18   36 1
  34   18   37 1
  35   19   20 1
  36   19   23 1
  37   19   38 1
  38   20   21 1
  39   20   39 1
  40   20   40 1
  41   21   22 1
  42   21   41 1
  43   21   42 1
  44   22   23 1
  45   22   43 1
  46   22   44 1
  47   23   45 1
  48   23   46 1

#	End of record

