#	Name: ASD04320001
#	Creating user name:	WinNT
#	Creation time:	15. 06. 2019 20:48

#	Modifying user name:	WinNT
#	Modification time:	15. 06. 2019 20:48

#	Program:	/corina/corina34_cracker 3.40 0067  02.08.2006

@<TRIPOS>MOLECULE
ASD04320001
  51   54    0    0    0
SMALL
NO_CHARGES


@<TRIPOS>ATOM
   1 O1            -0.0173     1.4240     0.0099 O.3     
   2 O2             0.5931     0.0987     2.3692 O.3     
   3 O3             4.7140     1.5159     0.6454 O.3     
   4 O4             2.3967     5.4376    -0.7128 O.3     
   5 O5            -4.2953     0.3204     2.2932 O.3     
   6 O6            -3.5138    -3.3205    -0.6777 O.3     
   7 O7             1.4182    -1.7018     3.3726 O.2     
   8 O8            -5.1729    -1.9812     1.0637 O.3     
   9 O9            -1.0393     2.8533     6.2885 O.3     
  10 O10            0.7567    -1.0699     8.3145 O.3     
  11 O11           -0.4750     1.3785     8.5400 O.3     
  12 C12            0.9706    -0.4803     1.0923 C.3     
  13 C13            0.0021    -0.0041     0.0020 C.3     
  14 C14            2.3815    -0.0220     0.7149 C.3     
  15 C15            2.3569     1.4365     0.3332 C.ar    
  16 C16           -1.3807    -0.5321     0.2854 C.ar    
  17 C17            1.1750     2.0753     0.0020 C.ar    
  18 C18            3.5539     2.1428     0.3170 C.ar    
  19 C19            1.1919     3.4206    -0.3497 C.ar    
  20 C20           -1.8154    -1.6910    -0.3299 C.ar    
  21 C21           -2.2087     0.1407     1.1643 C.ar    
  22 C22            3.5693     3.4834    -0.0325 C.ar    
  23 C23            2.3857     4.1233    -0.3674 C.ar    
  24 C24            0.8733    -0.6205     3.4738 C.2     
  25 C25           -3.4815    -0.3421     1.4280 C.ar    
  26 C26           -3.0868    -2.1805    -0.0715 C.ar    
  27 C27           -3.9244    -1.5041     0.8075 C.ar    
  28 C28            0.5186    -0.0952     4.8054 C.ar    
  29 C29            0.8087    -0.8401     5.9518 C.ar    
  30 C30           -0.1030     1.1509     4.9236 C.ar    
  31 C31           -0.4343     1.6407     6.1728 C.ar    
  32 C32            0.4751    -0.3454     7.1985 C.ar    
  33 C33           -0.1489     0.8941     7.3130 C.ar    
  34 H34            5.1694     1.1122    -0.1062 H       
  35 H35            2.2809     6.0414     0.0336 H       
  36 H36           -4.8512     0.9917     1.8745 H       
  37 H37           -3.3173    -4.1270    -0.1816 H       
  38 H38           -5.8543    -1.6395     0.4686 H       
  39 H39           -2.0052     2.8148     6.2648 H       
  40 H40            1.6277    -0.8871     8.6928 H       
  41 H41           -1.3605     1.1297     8.8384 H       
  42 H42            0.9424    -1.5678     1.1593 H       
  43 H43            0.3399    -0.3614    -0.9708 H       
  44 H44            3.0483    -0.1632     1.5655 H       
  45 H45            2.7408    -0.6116    -0.1286 H       
  46 H46            0.2704     3.9198    -0.6107 H       
  47 H47           -1.1641    -2.2159    -1.0131 H       
  48 H48           -1.8637     1.0435     1.6464 H       
  49 H49            4.5013     4.0291    -0.0436 H       
  50 H50            1.2927    -1.8015     5.8636 H       
  51 H51           -0.3240     1.7307     4.0396 H       
@<TRIPOS>BOND
   1    1   13 1
   2    1   17 1
   3    2   24 1
   4    2   12 1
   5    3   18 1
   6    3   34 1
   7    4   23 1
   8    4   35 1
   9    5   25 1
  10    5   36 1
  11    6   26 1
  12    6   37 1
  13    7   24 2
  14    8   27 1
  15    8   38 1
  16    9   31 1
  17    9   39 1
  18   10   32 1
  19   10   40 1
  20   11   33 1
  21   11   41 1
  22   12   13 1
  23   12   14 1
  24   12   42 1
  25   13   16 1
  26   13   43 1
  27   14   15 1
  28   14   44 1
  29   14   45 1
  30   15   17 ar
  31   15   18 ar
  32   16   20 ar
  33   16   21 ar
  34   17   19 ar
  35   18   22 ar
  36   19   23 ar
  37   19   46 1
  38   20   26 ar
  39   20   47 1
  40   21   25 ar
  41   21   48 1
  42   22   23 ar
  43   22   49 1
  44   24   28 1
  45   25   27 ar
  46   26   27 ar
  47   28   29 ar
  48   28   30 ar
  49   29   32 ar
  50   29   50 1
  51   30   31 ar
  52   30   51 1
  53   31   33 ar
  54   32   33 ar

#	End of record

