#	Name: ASD00960250
#	Creating user name:	WinNT
#	Creation time:	15. 06. 2019 18:53

#	Modifying user name:	WinNT
#	Modification time:	15. 06. 2019 18:53

#	Program:	/corina/corina34_cracker 3.40 0067  02.08.2006

@<TRIPOS>MOLECULE
ASD00960250
  40   43    0    0    0
SMALL
NO_CHARGES


@<TRIPOS>ATOM
   1 C1            -0.0167     1.3829     0.0096 C.2     
   2 C2             0.0021    -0.0041     0.0020 C.2     
   3 N3             1.2813     1.8104    -0.0005 N.pl3   
   4 C4             2.0977     0.7205     0.0007 C.2     
   5 C5             1.3459    -0.3957    -0.0053 C.2     
   6 N6             1.7959     3.1157     0.0016 N.2     
   7 C7             3.0771     3.2790    -0.2228 C.2     
   8 N8             3.9028     2.2052    -0.5220 N.pl3   
   9 C9             3.6027     0.8678     0.0198 C.3     
  10 N10            4.1006     0.7601     1.3977 N.3     
  11 C11            3.6530     4.6340    -0.1562 C.2     
  12 N12            4.9594     4.9884    -0.3605 N.pl3   
  13 N13            5.0528     6.2635    -0.2126 N.2     
  14 N14            3.9072     6.7713     0.0731 N.2     
  15 C15            2.9917     5.8018     0.1171 C.2     
  16 C16           -1.2077     2.2324     0.0201 C.2     
  17 O17           -2.3146     1.7279     0.0233 O.2     
  18 O18           -1.0784     3.5753     0.0263 O.3     
  19 C19           -2.2836     4.3430     0.0364 C.3     
  20 C20           -1.9439     5.8112     0.0421 C.ar    
  21 C21           -1.7943     6.4907    -1.1524 C.ar    
  22 C22           -1.4826     7.8374    -1.1471 C.ar    
  23 C23           -1.3210     8.5048     0.0526 C.ar    
  24 C24           -1.4715     7.8256     1.2471 C.ar    
  25 C25           -1.7875     6.4798     1.2419 C.ar    
  26 H26           -0.8574    -0.6580     0.0021 H       
  27 H27            1.7134    -1.4112    -0.0144 H       
  28 H28            4.6792     2.3347    -1.0889 H       
  29 H29            4.0609     0.1008    -0.6046 H       
  30 H30            5.0989     0.9019     1.4335 H       
  31 H31            3.6215     1.4063     2.0068 H       
  32 H32            5.6868     4.3847    -0.5781 H       
  33 H33            1.9393     5.9146     0.3318 H       
  34 H34           -2.8707     4.1094    -0.8517 H       
  35 H35           -2.8615     4.1003     0.9282 H       
  36 H36           -1.9205     5.9693    -2.0897 H       
  37 H37           -1.3650     8.3681    -2.0804 H       
  38 H38           -1.0768     9.5568     0.0567 H       
  39 H39           -1.3449     8.3469     2.1844 H       
  40 H40           -1.9087     5.9500     2.1751 H       
@<TRIPOS>BOND
   1    1    2 2
   2    1    3 1
   3    1   16 1
   4    2    5 1
   5    2   26 1
   6    3    4 1
   7    3    6 1
   8    4    5 2
   9    4    9 1
  10    5   27 1
  11    6    7 2
  12    7    8 1
  13    7   11 1
  14    8    9 1
  15    8   28 1
  16    9   10 1
  17    9   29 1
  18   10   30 1
  19   10   31 1
  20   11   12 1
  21   11   15 2
  22   12   13 1
  23   12   32 1
  24   13   14 2
  25   14   15 1
  26   15   33 1
  27   16   17 2
  28   16   18 1
  29   18   19 1
  30   19   20 1
  31   19   34 1
  32   19   35 1
  33   20   21 ar
  34   20   25 ar
  35   21   22 ar
  36   21   36 1
  37   22   23 ar
  38   22   37 1
  39   23   24 ar
  40   23   38 1
  41   24   25 ar
  42   24   39 1
  43   25   40 1

#	End of record

