#	Name: ASD01884425
#	Creating user name:	WinNT
#	Creation time:	15. 06. 2019 19:48

#	Modifying user name:	WinNT
#	Modification time:	15. 06. 2019 19:48

#	Program:	/corina/corina34_cracker 3.40 0067  02.08.2006

@<TRIPOS>MOLECULE
ASD01884425
  38   40    0    0    0
SMALL
NO_CHARGES


@<TRIPOS>ATOM
   1 C1            -0.0164     1.3576     0.0095 C.2     
   2 C2             0.0021    -0.0041     0.0020 C.2     
   3 C3             1.2439    -0.6751    -0.0134 C.2     
   4 C4             2.4023     0.0464    -0.0206 C.2     
   5 N5             2.3700     1.4023    -0.0126 N.am    
   6 C6             1.1986     2.0652     0.0017 C.2     
   7 C7             1.2896    -2.1585    -0.0214 C.ar    
   8 C8             3.6266     2.1554    -0.0201 C.3     
   9 O9             1.1911     3.2857     0.0092 O.2     
  10 C10            4.0442     2.4217    -1.4434 C.ar    
  11 C11            3.6204     3.5707    -2.0845 C.ar    
  12 C12            4.0034     3.8150    -3.3901 C.ar    
  13 C13            4.8105     2.9104    -4.0544 C.ar    
  14 C14            5.2351     1.7619    -3.4129 C.ar    
  15 C15            4.8556     1.5197    -2.1059 C.ar    
  16 C16            1.8285    -2.8537     1.0570 C.ar    
  17 C17            0.7862    -2.8780    -1.1104 C.ar    
  18 C18            0.8503    -4.2577    -1.0721 C.ar    
  19 C19            1.4082    -4.8808     0.0380 C.ar    
  20 N20            1.8706    -4.1714     1.0541 N.ar    
  21 O21            1.4740    -6.2353     0.0826 O.3     
  22 C22            2.0579    -6.8184     1.2492 C.3     
  23 H23           -0.9563     1.8895     0.0169 H       
  24 H24           -0.9217    -0.5635     0.0082 H       
  25 H25            3.3527    -0.4665    -0.0325 H       
  26 H26            3.4857     3.1026     0.5005 H       
  27 H27            4.4005     1.5758     0.4832 H       
  28 H28            2.9898     4.2774    -1.5655 H       
  29 H29            3.6717     4.7123    -3.8912 H       
  30 H30            5.1092     3.1009    -5.0746 H       
  31 H31            5.8654     1.0550    -3.9320 H       
  32 H32            5.1873     0.6224    -1.6047 H       
  33 H33            2.2166    -2.3084     1.9046 H       
  34 H34            0.3577    -2.3675    -1.9602 H       
  35 H35            0.4710    -4.8452    -1.8951 H       
  36 H36            2.0483    -7.9044     1.1563 H       
  37 H37            3.0861    -6.4717     1.3530 H       
  38 H38            1.4847    -6.5240     2.1284 H       
@<TRIPOS>BOND
   1    1    2 2
   2    1    6 1
   3    1   23 1
   4    2    3 1
   5    2   24 1
   6    3    4 2
   7    3    7 1
   8    4    5 1
   9    4   25 1
  10    5    6 am
  11    5    8 1
  12    6    9 2
  13    7   16 ar
  14    7   17 ar
  15    8   10 1
  16    8   26 1
  17    8   27 1
  18   10   11 ar
  19   10   15 ar
  20   11   12 ar
  21   11   28 1
  22   12   13 ar
  23   12   29 1
  24   13   14 ar
  25   13   30 1
  26   14   15 ar
  27   14   31 1
  28   15   32 1
  29   16   20 ar
  30   16   33 1
  31   17   18 ar
  32   17   34 1
  33   18   19 ar
  34   18   35 1
  35   19   20 ar
  36   19   21 1
  37   21   22 1
  38   22   36 1
  39   22   37 1
  40   22   38 1

#	End of record

