#	Name: ASD02030227
#	Creating user name:	WinNT
#	Creation time:	15. 06. 2019 20:14

#	Modifying user name:	WinNT
#	Modification time:	15. 06. 2019 20:14

#	Program:	/corina/corina34_cracker 3.40 0067  02.08.2006

@<TRIPOS>MOLECULE
ASD02030227
  52   56    0    0    0
SMALL
NO_CHARGES


@<TRIPOS>ATOM
   1 N1            -5.4693     7.9514     2.8776 N.am    
   2 C2            -4.0433     7.8564     3.2201 C.3     
   3 C3            -3.8463     6.6720     4.1744 C.3     
   4 N4            -4.5182     5.4947     3.6066 N.am    
   5 C5            -5.9443     5.5897     3.2640 C.3     
   6 C6            -6.1426     6.7724     2.3150 C.3     
   7 C7            -6.1488     9.0974     3.0809 C.2     
   8 C8            -5.4968    10.2308     3.7708 C.2     
   9 N9            -6.0814    11.3484     4.1451 N.2     
  10 N10           -4.2023    10.2986     4.1319 N.2     
  11 C11           -4.0210    11.4567     4.7139 C.2     
  12 N12           -5.2053    12.1023     4.7149 N.pl3   
  13 C13           -5.4429    13.3773     5.2458 C.ar    
  14 O14           -7.2977     9.1991     2.6971 O.2     
  15 C15           -3.8388     4.3486     3.4032 C.2     
  16 C16           -2.3888     4.3023     3.6387 C.2     
  17 O17           -4.4257     3.3525     3.0247 O.2     
  18 C18           -6.7141    13.9311     5.1823 C.ar    
  19 C19           -6.9452    15.1892     5.7069 C.ar    
  20 C20           -5.9103    15.8957     6.2941 C.ar    
  21 C21           -4.6431    15.3458     6.3578 C.ar    
  22 C22           -4.4082    14.0867     5.8413 C.ar    
  23 C23           -6.3949     4.2979     2.5790 C.3     
  24 Cl24          -8.5344    15.8833     5.6285 Cl      
  25 S25           -1.6010     4.8199     5.1190 S.3     
  26 C26           -0.0146     4.4084     4.4776 C.ar    
  27 C27           -0.1512     3.9007     3.1796 C.ar    
  28 C28           -1.4891     3.8548     2.7569 C.2     
  29 C29            1.2557     4.5161     5.0535 C.ar    
  30 C30            2.3694     4.1259     4.3494 C.ar    
  31 C31            2.2407     3.6218     3.0612 C.ar    
  32 C32            1.0160     3.5066     2.4799 C.ar    
  33 Cl33           0.8826     2.8736     0.8690 Cl      
  34 H34           -3.4592     7.6970     2.3138 H       
  35 H35           -3.7222     8.7767     3.7081 H       
  36 H36           -2.7818     6.4665     4.2875 H       
  37 H37           -4.2810     6.9084     5.1455 H       
  38 H38           -6.5284     5.7490     4.1704 H       
  39 H39           -7.2074     6.9767     2.2027 H       
  40 H40           -5.7080     6.5385     1.3432 H       
  41 H41           -3.0923    11.8270     5.1223 H       
  42 H42           -7.5217    13.3800     4.7234 H       
  43 H43           -6.0926    16.8785     6.7031 H       
  44 H44           -3.8372    15.8998     6.8161 H       
  45 H45           -3.4182    13.6581     5.8919 H       
  46 H46           -6.4142     3.4877     3.3079 H       
  47 H47           -7.3929     4.4363     2.1631 H       
  48 H48           -5.6987     4.0495     1.7780 H       
  49 H49           -1.7722     3.4893     1.7808 H       
  50 H50            1.3615     4.9076     6.0545 H       
  51 H51            3.3477     4.2116     4.7988 H       
  52 H52            3.1219     3.3181     2.5156 H       
@<TRIPOS>BOND
   1    1    2 1
   2    1    7 am
   3    1    6 1
   4    2    3 1
   5    2   34 1
   6    2   35 1
   7    3    4 1
   8    3   36 1
   9    3   37 1
  10    4    5 1
  11    4   15 am
  12    5    6 1
  13    5   23 1
  14    5   38 1
  15    6   39 1
  16    6   40 1
  17    7    8 1
  18    7   14 2
  19    8    9 2
  20    8   10 1
  21    9   12 1
  22   10   11 2
  23   11   12 1
  24   11   41 1
  25   12   13 1
  26   13   18 ar
  27   13   22 ar
  28   15   16 1
  29   15   17 2
  30   16   25 1
  31   16   28 2
  32   18   19 ar
  33   18   42 1
  34   19   20 ar
  35   19   24 1
  36   20   21 ar
  37   20   43 1
  38   21   22 ar
  39   21   44 1
  40   22   45 1
  41   23   46 1
  42   23   47 1
  43   23   48 1
  44   25   26 1
  45   26   27 ar
  46   26   29 ar
  47   27   28 1
  48   27   32 ar
  49   28   49 1
  50   29   30 ar
  51   29   50 1
  52   30   31 ar
  53   30   51 1
  54   31   32 ar
  55   31   52 1
  56   32   33 1

#	End of record

