#	Name: ASD03730329
#	Creating user name:	WinNT
#	Creation time:	15. 06. 2019 20:44

#	Modifying user name:	WinNT
#	Modification time:	15. 06. 2019 20:44

#	Program:	/corina/corina34_cracker 3.40 0067  02.08.2006

@<TRIPOS>MOLECULE
ASD03730329
  65   71    0    0    0
SMALL
NO_CHARGES


@<TRIPOS>ATOM
   1 C1             0.2531     2.0498    -0.2903 C.2     
   2 C2             0.2054     0.5647    -0.0388 C.3     
   3 O3             1.3212     2.6070    -0.4313 O.2     
   4 N4            -0.8913     2.7579    -0.3640 N.am    
   5 C5            -0.8452     4.1491    -0.5172 C.ar    
   6 C6            -1.8950     4.9364    -0.0559 C.ar    
   7 C7            -1.8454     6.3097    -0.2093 C.ar    
   8 C8            -0.7537     6.8992    -0.8204 C.ar    
   9 C9             0.2907     6.1186    -1.2796 C.ar    
  10 C10            0.2505     4.7460    -1.1246 C.ar    
  11 F11           -2.9614     4.3602     0.5407 F       
  12 O12            5.3671    -1.9031     1.6007 O.3     
  13 C13            5.7756    -0.6023     1.5903 C.ar    
  14 C14            4.7981     0.2278     1.0465 C.ar    
  15 C15            3.6327    -0.6556     0.6924 C.3     
  16 C16            3.9356    -1.9558     1.4502 C.3     
  17 O17            8.2791     2.0602     2.2924 O.3     
  18 C18            7.1950     1.3237     1.9216 C.ar    
  19 C19            6.2095     2.1282     1.3630 C.ar    
  20 C20            6.7396     3.5487     1.3648 C.3     
  21 C21            8.2507     3.3248     1.6094 C.3     
  22 C22            5.0196     1.5836     0.9316 C.ar    
  23 C23            6.9703    -0.0442     2.0279 C.ar    
  24 N24            1.5691     0.0302    -0.0097 N.am    
  25 C25            2.3184    -0.0597     1.1075 C.2     
  26 C26            3.5164    -0.8842    -0.7852 C.ar    
  27 C27            4.3736    -1.4030    -1.7458 C.ar    
  28 C28            3.9574    -1.4853    -3.0742 C.ar    
  29 C29            2.6946    -1.0499    -3.4239 C.ar    
  30 C30            1.8426    -0.5342    -2.4684 C.ar    
  31 C31            2.2444    -0.4461    -1.1365 C.ar    
  32 C32            8.1749    -2.7081    -0.6655 C.ar    
  33 N33            7.1221    -3.3036    -0.1411 N.ar    
  34 C34            5.8969    -2.9204    -0.4568 C.ar    
  35 C35            5.7291    -1.8682    -1.3603 C.ar    
  36 C36            6.8725    -1.2663    -1.8913 C.ar    
  37 N37            8.0609    -1.7119    -1.5214 N.ar    
  38 O38            1.9945     0.2746     2.2275 O.2     
  39 C39            8.8262     4.4320     2.4949 C.3     
  40 C40            9.0079     3.2413     0.2826 C.3     
  41 H41           -0.2802     0.3736     0.9182 H       
  42 H42           -0.3582     0.0792    -0.8355 H       
  43 H43           -1.7468     2.3038    -0.3109 H       
  44 H44           -2.6599     6.9223     0.1481 H       
  45 H45           -0.7172     7.9720    -0.9395 H       
  46 H46            1.1414     6.5826    -1.7564 H       
  47 H47            1.0694     4.1379    -1.4796 H       
  48 H48            3.6400    -2.8245     0.8619 H       
  49 H49            3.4440    -1.9603     2.4230 H       
  50 H50            6.5678     4.0299     0.4019 H       
  51 H51            6.2957     4.1292     2.1735 H       
  52 H52            4.2595     2.2196     0.5024 H       
  53 H53            7.7320    -0.6793     2.4555 H       
  54 H54            4.6200    -1.8876    -3.8263 H       
  55 H55            2.3713    -1.1129    -4.4524 H       
  56 H56            0.8573    -0.1972    -2.7545 H       
  57 H57            9.1614    -3.0439    -0.3818 H       
  58 H58            5.0393    -3.4133    -0.0234 H       
  59 H59            6.7870    -0.4500    -2.5933 H       
  60 H60            9.8664     4.2060     2.7290 H       
  61 H61            8.7710     5.3844     1.9676 H       
  62 H62            8.2510     4.4942     3.4187 H       
  63 H63            8.5602     2.4694    -0.3433 H       
  64 H64            8.9515     4.2021    -0.2291 H       
  65 H65           10.0517     2.9929     0.4750 H       
@<TRIPOS>BOND
   1    1    2 1
   2    1    3 2
   3    1    4 am
   4    2   24 1
   5    2   41 1
   6    2   42 1
   7    4    5 1
   8    4   43 1
   9    5    6 ar
  10    5   10 ar
  11    6    7 ar
  12    6   11 1
  13    7    8 ar
  14    7   44 1
  15    8    9 ar
  16    8   45 1
  17    9   10 ar
  18    9   46 1
  19   10   47 1
  20   12   13 1
  21   12   16 1
  22   13   14 ar
  23   13   23 ar
  24   14   15 1
  25   14   22 ar
  26   15   16 1
  27   15   25 1
  28   15   26 1
  29   16   48 1
  30   16   49 1
  31   17   18 1
  32   17   21 1
  33   18   19 ar
  34   18   23 ar
  35   19   20 1
  36   19   22 ar
  37   20   21 1
  38   20   50 1
  39   20   51 1
  40   21   39 1
  41   21   40 1
  42   22   52 1
  43   23   53 1
  44   24   25 am
  45   24   31 1
  46   25   38 2
  47   26   27 ar
  48   26   31 ar
  49   27   28 ar
  50   27   35 1
  51   28   29 ar
  52   28   54 1
  53   29   30 ar
  54   29   55 1
  55   30   31 ar
  56   30   56 1
  57   32   33 ar
  58   32   37 ar
  59   32   57 1
  60   33   34 ar
  61   34   35 ar
  62   34   58 1
  63   35   36 ar
  64   36   37 ar
  65   36   59 1
  66   39   60 1
  67   39   61 1
  68   39   62 1
  69   40   63 1
  70   40   64 1
  71   40   65 1

#	End of record

