#	Name: ASD01900674
#	Creating user name:	WinNT
#	Creation time:	15. 06. 2019 19:52

#	Modifying user name:	WinNT
#	Modification time:	15. 06. 2019 19:52

#	Program:	/corina/corina34_cracker 3.40 0067  02.08.2006

@<TRIPOS>MOLECULE
ASD01900674
  40   43    0    0    0
SMALL
NO_CHARGES


@<TRIPOS>ATOM
   1 C1            -0.0186     1.4187     0.1365 C.ar    
   2 C2            -0.0085     0.0184     0.1256 C.ar    
   3 C3             1.2010    -0.6776     0.0651 C.ar    
   4 C4             2.3947     0.0228     0.0150 C.ar    
   5 C5             2.3660     1.4262     0.0306 C.ar    
   6 O6             3.5727    -0.6339    -0.0556 O.3     
   7 C7             4.7416    -0.0175     0.1909 C.2     
   8 C8             4.8673     1.3299     0.2220 C.2     
   9 C9             3.6620     2.1487    -0.0104 C.2     
  10 C10            5.9390    -0.8452     0.4388 C.ar    
  11 N11            7.1080    -0.2470     0.6852 N.ar    
  12 C12            8.2099    -0.9166     0.9140 C.ar    
  13 C13            8.1989    -2.3225     0.9072 C.ar    
  14 C14            6.9759    -2.9973     0.6492 C.ar    
  15 C15            5.8254    -2.2265     0.4164 C.ar    
  16 C16            9.3595    -3.0734     1.1470 C.ar    
  17 C17            9.2957    -4.4342     1.1288 C.ar    
  18 C18            8.0954    -5.0955     0.8758 C.ar    
  19 C19            6.9481    -4.4003     0.6385 C.ar    
  20 C20            1.1579     2.1129     0.0894 C.ar    
  21 C21           -1.2442    -0.7035     0.1773 C.1     
  22 C22           -2.2572    -1.2953     0.2197 C.1     
  23 C23           -3.4929    -2.0172     0.2714 C.2     
  24 C24           -3.4870    -3.3496     0.2613 C.2     
  25 N25            3.7316     3.4382    -0.2385 N.2     
  26 O26            2.5670     4.1566    -0.6028 O.3     
  27 H27           -0.9575     1.9508     0.1776 H       
  28 H28            1.2054    -1.7576     0.0578 H       
  29 H29            5.8243     1.7932     0.4111 H       
  30 H30            9.1308    -0.3869     1.1083 H       
  31 H31            4.8751    -2.6993     0.2167 H       
  32 H32           10.2975    -2.5759     1.3443 H       
  33 H33           10.1905    -5.0101     1.3134 H       
  34 H34            8.0745    -6.1752     0.8676 H       
  35 H35            6.0243    -4.9249     0.4440 H       
  36 H36            1.1493     3.1929     0.0971 H       
  37 H37           -4.4296    -1.4816     0.3186 H       
  38 H38           -4.4189    -3.8940     0.3003 H       
  39 H39           -2.5503    -3.8851     0.2141 H       
  40 H40            2.7171     5.1005    -0.7501 H       
@<TRIPOS>BOND
   1    1    2 ar
   2    1   20 ar
   3    1   27 1
   4    2    3 ar
   5    2   21 1
   6    3    4 ar
   7    3   28 1
   8    4    5 ar
   9    4    6 1
  10    5   20 ar
  11    5    9 1
  12    6    7 1
  13    7    8 2
  14    7   10 1
  15    8    9 1
  16    8   29 1
  17    9   25 2
  18   10   11 ar
  19   10   15 ar
  20   11   12 ar
  21   12   13 ar
  22   12   30 1
  23   13   14 ar
  24   13   16 ar
  25   14   15 ar
  26   14   19 ar
  27   15   31 1
  28   16   17 ar
  29   16   32 1
  30   17   18 ar
  31   17   33 1
  32   18   19 ar
  33   18   34 1
  34   19   35 1
  35   20   36 1
  36   21   22 3
  37   22   23 1
  38   23   24 2
  39   23   37 1
  40   24   38 1
  41   24   39 1
  42   25   26 1
  43   26   40 1

#	End of record

