#	Name: ASD01916705
#	Creating user name:	WinNT
#	Creation time:	15. 06. 2019 20:07

#	Modifying user name:	WinNT
#	Modification time:	15. 06. 2019 20:07

#	Program:	/corina/corina34_cracker 3.40 0067  02.08.2006

@<TRIPOS>MOLECULE
ASD01916705
  35   37    0    0    0
SMALL
NO_CHARGES


@<TRIPOS>ATOM
   1 O1            -0.0161     1.3386     0.0094 O.3     
   2 C2             0.0021    -0.0041     0.0020 C.2     
   3 N3             1.2264    -0.4373    -0.0120 N.2     
   4 C4             2.0693     0.6308    -0.0143 C.ar    
   5 C5             1.2619     1.7771    -0.0004 C.ar    
   6 C6             1.8476     3.0347     0.0003 C.ar    
   7 C7             3.2217     3.1551    -0.0126 C.ar    
   8 C8             4.0273     2.0271    -0.0263 C.ar    
   9 C9             3.4626     0.7655    -0.0273 C.ar    
  10 C10           -1.2225    -0.8823     0.0094 C.3     
  11 C11           -1.6230    -1.1868     1.4544 C.3     
  12 C12           -2.8192    -2.0447     1.4616 C.1     
  13 C13           -3.7732    -2.7289     1.4674 C.1     
  14 C14           -4.9368    -3.5634     1.4745 C.ar    
  15 C15           -5.4877    -3.9730     2.6893 C.ar    
  16 C16           -6.6120    -4.7791     2.6794 C.ar    
  17 C17           -7.1506    -5.1507     1.4551 C.ar    
  18 C18           -6.5538    -4.7088     0.2888 C.ar    
  19 N19           -5.4866    -3.9372     0.3249 N.ar    
  20 O20            4.2556    -0.3381    -0.0408 O.3     
  21 C21            5.6681    -0.1218    -0.0535 C.3     
  22 H22            1.2279     3.9192     0.0106 H       
  23 H23            3.6736     4.1361    -0.0123 H       
  24 H24            5.1019     2.1346    -0.0363 H       
  25 H25           -2.0414    -0.3683    -0.4939 H       
  26 H26           -1.0041    -1.8147    -0.5112 H       
  27 H27           -0.8042    -1.7008     1.9577 H       
  28 H28           -1.8414    -0.2544     1.9750 H       
  29 H29           -5.0426    -3.6654     3.6240 H       
  30 H30           -7.0606    -5.1123     3.6037 H       
  31 H31           -8.0276    -5.7796     1.4140 H       
  32 H32           -6.9707    -4.9968    -0.6650 H       
  33 H33            5.9407     0.4457    -0.9433 H       
  34 H34            5.9582     0.4365     0.8365 H       
  35 H35            6.1827    -1.0826    -0.0636 H       
@<TRIPOS>BOND
   1    1    2 1
   2    1    5 1
   3    2    3 2
   4    2   10 1
   5    3    4 1
   6    4    5 ar
   7    4    9 ar
   8    5    6 ar
   9    6    7 ar
  10    6   22 1
  11    7    8 ar
  12    7   23 1
  13    8    9 ar
  14    8   24 1
  15    9   20 1
  16   10   11 1
  17   10   25 1
  18   10   26 1
  19   11   12 1
  20   11   27 1
  21   11   28 1
  22   12   13 3
  23   13   14 1
  24   14   15 ar
  25   14   19 ar
  26   15   16 ar
  27   15   29 1
  28   16   17 ar
  29   16   30 1
  30   17   18 ar
  31   17   31 1
  32   18   19 ar
  33   18   32 1
  34   20   21 1
  35   21   33 1
  36   21   34 1
  37   21   35 1

#	End of record

