#	Name: ASD01900803
#	Creating user name:	WinNT
#	Creation time:	15. 06. 2019 19:52

#	Modifying user name:	WinNT
#	Modification time:	15. 06. 2019 19:52

#	Program:	/corina/corina34_cracker 3.40 0067  02.08.2006

@<TRIPOS>MOLECULE
ASD01900803
  45   48    0    0    0
SMALL
NO_CHARGES


@<TRIPOS>ATOM
   1 N1             0.6518     1.6044     0.5510 N.am    
   2 C2             1.0410     0.2854     0.8121 C.ar    
   3 C3             2.7738    -1.3393     1.1463 C.ar    
   4 C4             2.3893    -0.0383     0.8888 C.ar    
   5 C5             0.0785    -0.6984     1.0001 C.ar    
   6 C6             0.4627    -1.9996     1.2581 C.ar    
   7 C7             1.8127    -2.3242     1.3295 C.ar    
   8 Cl8           -0.7396    -3.2295     1.4937 Cl      
   9 C9             1.3536     2.3539    -0.3220 C.2     
  10 C10            0.9098     3.7260    -0.6409 C.ar    
  11 O11            2.3521     1.9004    -0.8472 O.2     
  12 C12            1.5687     4.4570    -1.6388 C.ar    
  13 C13            1.1329     5.7514    -1.9244 C.ar    
  14 C14            0.0653     6.2595    -1.2078 C.ar    
  15 C15           -0.5379     5.4765    -0.2337 C.ar    
  16 N16           -0.1151     4.2580     0.0162 N.ar    
  17 N17            2.6373     3.9028    -2.3311 N.pl3   
  18 N18            2.2029    -3.6436     1.5907 N.am    
  19 C19            2.8275    -5.8551     1.3123 C.ar    
  20 C20            2.4367    -4.5889     0.6642 C.2     
  21 C21            2.4300    -4.2203     2.9207 C.3     
  22 C22            2.8310    -5.6566     2.6950 C.ar    
  23 C23            3.4971    -7.9278     3.0277 C.ar    
  24 C24            3.4968    -8.1354     1.6594 C.ar    
  25 C25            3.1673    -7.1086     0.7994 C.ar    
  26 C26            3.1637    -6.6869     3.5438 C.ar    
  27 O27            2.3396    -4.4240    -0.5364 O.2     
  28 C28            3.5535    -3.4669     3.6357 C.3     
  29 H29           -0.1254     1.9777     0.9955 H       
  30 H30            3.8225    -1.5907     1.2052 H       
  31 H31            3.1373     0.7276     0.7467 H       
  32 H32           -0.9700    -0.4458     0.9448 H       
  33 H33            1.6182     6.3425    -2.6870 H       
  34 H34           -0.2961     7.2581    -1.4043 H       
  35 H35           -1.3716     5.8743     0.3260 H       
  36 H36            2.7421     2.9393    -2.3708 H       
  37 H37            3.2789     4.4791    -2.7750 H       
  38 H38            1.5141    -4.1753     3.5099 H       
  39 H39            3.7561    -8.7366     3.6949 H       
  40 H40            3.7578    -9.1055     1.2630 H       
  41 H41            3.1680    -7.2748    -0.2677 H       
  42 H42            3.1652    -6.5278     4.6120 H       
  43 H43            3.2766    -2.4181     3.7431 H       
  44 H44            3.7135    -3.9032     4.6216 H       
  45 H45            4.4707    -3.5425     3.0516 H       
@<TRIPOS>BOND
   1    1    2 1
   2    1    9 am
   3    1   29 1
   4    2    5 ar
   5    2    4 ar
   6    3    4 ar
   7    3    7 ar
   8    3   30 1
   9    4   31 1
  10    5    6 ar
  11    5   32 1
  12    6    7 ar
  13    6    8 1
  14    7   18 1
  15    9   10 1
  16    9   11 2
  17   10   12 ar
  18   10   16 ar
  19   12   13 ar
  20   12   17 1
  21   13   14 ar
  22   13   33 1
  23   14   15 ar
  24   14   34 1
  25   15   16 ar
  26   15   35 1
  27   17   36 1
  28   17   37 1
  29   18   21 1
  30   18   20 am
  31   19   20 1
  32   19   22 ar
  33   19   25 ar
  34   20   27 2
  35   21   22 1
  36   21   28 1
  37   21   38 1
  38   22   26 ar
  39   23   24 ar
  40   23   26 ar
  41   23   39 1
  42   24   25 ar
  43   24   40 1
  44   25   41 1
  45   26   42 1
  46   28   43 1
  47   28   44 1
  48   28   45 1

#	End of record

