#	Name: ASD02198167
#	Creating user name:	WinNT
#	Creation time:	15. 06. 2019 20:18

#	Modifying user name:	WinNT
#	Modification time:	15. 06. 2019 20:18

#	Program:	/corina/corina34_cracker 3.40 0067  02.08.2006

@<TRIPOS>MOLECULE
ASD02198167
  47   50    0    0    0
SMALL
NO_CHARGES


@<TRIPOS>ATOM
   1 C1            -0.1907     2.0658    -0.3219 C.2     
   2 C2            -0.3357     0.6980    -0.4245 C.2     
   3 C3            -1.5438     0.0726    -0.8717 C.1     
   4 S4             1.3675     2.4718     0.2386 S.3     
   5 C5             1.8424     0.7840     0.3406 C.2     
   6 C6             0.7991    -0.0201    -0.0548 C.2     
   7 C7             3.1033     0.3230     0.7634 C.2     
   8 C8             4.1884     1.2894     1.0449 C.ar    
   9 O9             3.3017    -0.8726     0.8979 O.2     
  10 N10            0.8697    -1.4040    -0.0827 N.pl3   
  11 N11           -1.1696     2.9797    -0.6352 N.pl3   
  12 N12           -2.5022    -0.4236    -1.2264 N.1     
  13 C13            4.2361     2.5067     0.3645 C.ar    
  14 C14           -0.9102     4.3500    -0.5200 C.ar    
  15 C15            0.3126     4.8629    -0.9333 C.ar    
  16 C16            5.2498     3.4041     0.6313 C.ar    
  17 C17            6.2182     3.0994     1.5708 C.ar    
  18 C18            6.1770     1.8931     2.2499 C.ar    
  19 C19            5.1646     0.9894     1.9959 C.ar    
  20 Cl20           7.3971     1.5192     3.4268 Cl      
  21 C21            0.5675     6.2151    -0.8197 C.ar    
  22 C22           -0.3975     7.0615    -0.2929 C.ar    
  23 C23           -1.6191     6.5498     0.1206 C.ar    
  24 C24           -1.8777     5.1987     0.0024 C.ar    
  25 O25           -0.1457     8.3929    -0.1814 O.3     
  26 C26            0.1616     8.8832     1.0481 C.ar    
  27 C27            0.5118    10.2177     1.1965 C.ar    
  28 C28            0.8238    10.7136     2.4474 C.ar    
  29 C29            0.7873     9.8816     3.5512 C.ar    
  30 C30            0.4390     8.5513     3.4060 C.ar    
  31 C31            0.1202     8.0518     2.1582 C.ar    
  32 H32            1.6863    -1.8535     0.1859 H       
  33 H33            0.1026    -1.9231    -0.3707 H       
  34 H34           -2.0397     2.6744    -0.9361 H       
  35 H35            3.4813     2.7459    -0.3698 H       
  36 H36            1.0640     4.2041    -1.3430 H       
  37 H37            5.2874     4.3465     0.1051 H       
  38 H38            7.0098     3.8050     1.7754 H       
  39 H39            5.1330     0.0488     2.5257 H       
  40 H40            1.5185     6.6140    -1.1406 H       
  41 H41           -2.3695     7.2092     0.5312 H       
  42 H42           -2.8286     4.8006     0.3243 H       
  43 H43            0.5408    10.8680     0.3346 H       
  44 H44            1.0968    11.7521     2.5634 H       
  45 H45            1.0315    10.2713     4.5283 H       
  46 H46            0.4120     7.9033     4.2696 H       
  47 H47           -0.1521     7.0128     2.0454 H       
@<TRIPOS>BOND
   1    1    2 2
   2    1    4 1
   3    1   11 1
   4    2    3 1
   5    2    6 1
   6    3   12 3
   7    4    5 1
   8    5    6 2
   9    5    7 1
  10    6   10 1
  11    7    8 1
  12    7    9 2
  13    8   13 ar
  14    8   19 ar
  15   10   32 1
  16   10   33 1
  17   11   14 1
  18   11   34 1
  19   13   16 ar
  20   13   35 1
  21   14   15 ar
  22   14   24 ar
  23   15   21 ar
  24   15   36 1
  25   16   17 ar
  26   16   37 1
  27   17   18 ar
  28   17   38 1
  29   18   19 ar
  30   18   20 1
  31   19   39 1
  32   21   22 ar
  33   21   40 1
  34   22   23 ar
  35   22   25 1
  36   23   24 ar
  37   23   41 1
  38   24   42 1
  39   25   26 1
  40   26   27 ar
  41   26   31 ar
  42   27   28 ar
  43   27   43 1
  44   28   29 ar
  45   28   44 1
  46   29   30 ar
  47   29   45 1
  48   30   31 ar
  49   30   46 1
  50   31   47 1

#	End of record

