#	Name: ASD01148101
#	Creating user name:	WinNT
#	Creation time:	15. 06. 2019 19:02

#	Modifying user name:	WinNT
#	Modification time:	15. 06. 2019 19:02

#	Program:	/corina/corina34_cracker 3.40 0067  02.08.2006

@<TRIPOS>MOLECULE
ASD01148101
  51   53    0    0    0
SMALL
NO_CHARGES


@<TRIPOS>ATOM
   1 C1            -0.0166     1.3747     0.0096 C.ar    
   2 C2             0.0021    -0.0041     0.0020 C.ar    
   3 C3             1.1753     2.0867     0.0020 C.ar    
   4 C4             2.3895     1.4133    -0.0136 C.ar    
   5 C5             2.4148     0.0346    -0.0217 C.ar    
   6 C6             1.2196    -0.6832    -0.0132 C.ar    
   7 C7             1.2433    -2.1658    -0.0214 C.ar    
   8 C8             0.0469    -2.8824    -0.0129 C.ar    
   9 C9             2.4620    -2.8436    -0.0433 C.ar    
  10 C10            2.4840    -4.2209    -0.0508 C.ar    
  11 C11            1.2877    -4.9374    -0.0370 C.ar    
  12 C12            0.0690    -4.2596    -0.0205 C.ar    
  13 C13            1.3114    -6.4203    -0.0461 C.ar    
  14 C14           -1.3323     2.1096     0.0198 C.3     
  15 C15           -2.1351     1.7354    -1.2277 C.3     
  16 C16           -2.1233     1.7218     1.2707 C.3     
  17 C17            3.6809     2.1900    -0.0223 C.3     
  18 C18            4.5020     1.8281     1.2170 C.3     
  19 C19            4.4772     1.8414    -1.2813 C.3     
  20 O20            1.1536     3.4452     0.0095 O.3     
  21 C21            0.1173    -7.1391    -0.0324 C.ar    
  22 C22            2.5277    -7.1003    -0.0743 C.ar    
  23 C23            0.1454    -8.5188    -0.0414 C.ar    
  24 C24            1.3556    -9.1885    -0.0636 C.ar    
  25 C25            2.5437    -8.4802    -0.0831 C.ar    
  26 H26           -0.9254    -0.5573     0.0082 H       
  27 H27            3.3596    -0.4886    -0.0346 H       
  28 H28           -0.8969    -2.3575    -0.0001 H       
  29 H29            3.3885    -2.2887    -0.0547 H       
  30 H30            3.4277    -4.7458    -0.0678 H       
  31 H31           -0.8574    -4.8146    -0.0097 H       
  32 H32           -1.1483     3.1839     0.0248 H       
  33 H33           -2.3191     0.6611    -1.2327 H       
  34 H34           -3.0867     2.2669    -1.2203 H       
  35 H35           -1.5716     2.0117    -2.1189 H       
  36 H36           -2.3073     0.6475     1.2657 H       
  37 H37           -1.5513     1.9884     2.1595 H       
  38 H38           -3.0749     2.2534     1.2781 H       
  39 H39            3.4627     3.2579    -0.0144 H       
  40 H40            4.7202     0.7602     1.2091 H       
  41 H41            5.4360     2.3899     1.2107 H       
  42 H42            3.9347     2.0764     2.1140 H       
  43 H43            4.6954     0.7735    -1.2892 H       
  44 H44            3.8922     2.0993    -2.1642 H       
  45 H45            5.4113     2.4032    -1.2876 H       
  46 H46            1.1558     3.8337     0.8950 H       
  47 H47           -0.8281    -6.6173    -0.0143 H       
  48 H48            3.4559    -6.5484    -0.0896 H       
  49 H49           -0.7792    -9.0769    -0.0307 H       
  50 H50            1.3729   -10.2683    -0.0699 H       
  51 H51            3.4856    -9.0082    -0.1050 H       
@<TRIPOS>BOND
   1    1    2 ar
   2    1    3 ar
   3    1   14 1
   4    2    6 ar
   5    2   26 1
   6    3    4 ar
   7    3   20 1
   8    4    5 ar
   9    4   17 1
  10    5    6 ar
  11    5   27 1
  12    6    7 1
  13    7    8 ar
  14    7    9 ar
  15    8   12 ar
  16    8   28 1
  17    9   10 ar
  18    9   29 1
  19   10   11 ar
  20   10   30 1
  21   11   12 ar
  22   11   13 1
  23   12   31 1
  24   13   21 ar
  25   13   22 ar
  26   14   15 1
  27   14   16 1
  28   14   32 1
  29   15   33 1
  30   15   34 1
  31   15   35 1
  32   16   36 1
  33   16   37 1
  34   16   38 1
  35   17   18 1
  36   17   19 1
  37   17   39 1
  38   18   40 1
  39   18   41 1
  40   18   42 1
  41   19   43 1
  42   19   44 1
  43   19   45 1
  44   20   46 1
  45   21   23 ar
  46   21   47 1
  47   22   25 ar
  48   22   48 1
  49   23   24 ar
  50   23   49 1
  51   24   25 ar
  52   24   50 1
  53   25   51 1

#	End of record

