#	Name: ASD01813963
#	Creating user name:	WinNT
#	Creation time:	15. 06. 2019 19:31

#	Modifying user name:	WinNT
#	Modification time:	15. 06. 2019 19:31

#	Program:	/corina/corina34_cracker 3.40 0067  02.08.2006

@<TRIPOS>MOLECULE
ASD01813963
  68   71    0    0    0
SMALL
NO_CHARGES


@<TRIPOS>ATOM
   1 C1            -0.0187     1.5258     0.0104 C.3     
   2 C2             0.0021    -0.0041     0.0020 C.3     
   3 O3            -1.3386    -0.4987     0.0122 O.3     
   4 C4            -1.4980    -1.8458     0.0064 C.ar    
   5 C5            -1.5857    -2.5317    -1.1955 C.ar    
   6 C6            -1.5036    -1.7796    -2.4988 C.3     
   7 C7            -1.7476    -3.9031    -1.1998 C.ar    
   8 C8            -1.8411    -4.6423    -2.5097 C.3     
   9 C9            -1.8241    -4.6033    -0.0072 C.ar    
  10 C10           -2.0009    -6.0998    -0.0261 C.3     
  11 C11           -0.6546    -6.7630    -0.1634 C.ar    
  12 C12           -0.1446    -7.0332    -1.4204 C.ar    
  13 C13            1.0879    -7.6404    -1.5519 C.ar    
  14 C14            1.8187    -7.9808    -0.4157 C.ar    
  15 C15            1.3005    -7.7059     0.8479 C.ar    
  16 C16            0.0691    -7.0940     0.9679 C.ar    
  17 C17            3.1446    -8.6345    -0.5510 C.2     
  18 C18            3.9706    -9.0298     0.4611 C.2     
  19 N19            5.0576    -9.5710    -0.1335 N.pl3   
  20 C20            6.2194   -10.1354     0.5578 C.3     
  21 N21            4.8996    -9.5071    -1.4087 N.2     
  22 N22            3.7708    -8.9615    -1.6956 N.2     
  23 C23           -1.7389    -3.9377     1.1967 C.ar    
  24 C24           -1.5692    -2.5515     1.2155 C.ar    
  25 C25           -1.4707    -1.8334     2.5006 C.2     
  26 O26           -1.3272    -0.6261     2.5130 O.2     
  27 N27           -1.5396    -2.5158     3.6608 N.am    
  28 C28           -1.4417    -1.8028     4.9369 C.3     
  29 H29           -0.7499    -0.9668     4.8338 H       
  30 C30           -2.8223    -1.2764     5.3342 C.3     
  31 C31           -2.7200    -0.5317     6.6668 C.3     
  32 C32           -2.2083    -1.4870     7.7468 C.3     
  33 C33           -0.8277    -2.0134     7.3495 C.3     
  34 C34           -0.9299    -2.7580     6.0169 C.3     
  35 H35           -1.6217    -3.5941     6.1200 H       
  36 O36            0.3595    -3.2497     5.6458 O.3     
  37 H37            1.0039     1.9031     0.0027 H       
  38 H38           -0.5459     1.8868    -0.8726 H       
  39 H39           -0.5289     1.8773     0.9072 H       
  40 H40            0.5123    -0.3556    -0.8948 H       
  41 H41            0.5293    -0.3651     0.8851 H       
  42 H42           -0.4633    -1.7191    -2.8185 H       
  43 H43           -2.0869    -2.3019    -3.2571 H       
  44 H44           -1.9012    -0.7737    -2.3635 H       
  45 H45           -0.8431    -4.9410    -2.8304 H       
  46 H46           -2.4626    -5.5288    -2.3831 H       
  47 H47           -2.2853    -3.9917    -3.2631 H       
  48 H48           -2.4714    -6.4218     0.9029 H       
  49 H49           -2.6319    -6.3805    -0.8693 H       
  50 H50           -0.7120    -6.7690    -2.3006 H       
  51 H51            1.4849    -7.8517    -2.5339 H       
  52 H52            1.8628    -7.9680     1.7319 H       
  53 H53           -0.3318    -6.8768     1.9469 H       
  54 H54            3.7922    -8.9302     1.5216 H       
  55 H55            6.0538   -11.1974     0.7389 H       
  56 H56            7.1080   -10.0065    -0.0602 H       
  57 H57            6.3608    -9.6223     1.5090 H       
  58 H58           -1.7990    -4.4878     2.1242 H       
  59 H59           -1.6540    -3.4790     3.6510 H       
  60 H60           -3.1869    -0.5958     4.5647 H       
  61 H61           -3.5140    -2.1124     5.4372 H       
  62 H62           -2.0283     0.3043     6.5637 H       
  63 H63           -3.7036    -0.1567     6.9498 H       
  64 H64           -2.1354    -0.9565     8.6962 H       
  65 H65           -2.9000    -2.3230     7.8499 H       
  66 H66           -0.1359    -1.1774     7.2465 H       
  67 H67           -0.4631    -2.6939     8.1190 H       
  68 H68            0.7460    -3.8626     6.2862 H       
@<TRIPOS>BOND
   1    1    2 1
   2    1   37 1
   3    1   38 1
   4    1   39 1
   5    2    3 1
   6    2   40 1
   7    2   41 1
   8    3    4 1
   9    4   24 ar
  10    4    5 ar
  11    5    6 1
  12    5    7 ar
  13    6   42 1
  14    6   43 1
  15    6   44 1
  16    7    8 1
  17    7    9 ar
  18    8   45 1
  19    8   46 1
  20    8   47 1
  21    9   10 1
  22    9   23 ar
  23   10   11 1
  24   10   48 1
  25   10   49 1
  26   11   16 ar
  27   11   12 ar
  28   12   13 ar
  29   12   50 1
  30   13   14 ar
  31   13   51 1
  32   14   15 ar
  33   14   17 1
  34   15   16 ar
  35   15   52 1
  36   16   53 1
  37   17   22 1
  38   17   18 2
  39   18   19 1
  40   18   54 1
  41   19   20 1
  42   19   21 1
  43   20   55 1
  44   20   56 1
  45   20   57 1
  46   21   22 2
  47   23   24 ar
  48   23   58 1
  49   24   25 1
  50   25   26 2
  51   25   27 am
  52   27   28 1
  53   27   59 1
  54   28   29 1
  55   28   34 1
  56   28   30 1
  57   30   31 1
  58   30   60 1
  59   30   61 1
  60   31   32 1
  61   31   62 1
  62   31   63 1
  63   32   33 1
  64   32   64 1
  65   32   65 1
  66   33   34 1
  67   33   66 1
  68   33   67 1
  69   34   35 1
  70   34   36 1
  71   36   68 1

#	End of record

