#	Name: ASD03090883
#	Creating user name:	WinNT
#	Creation time:	15. 06. 2019 20:29

#	Modifying user name:	WinNT
#	Modification time:	15. 06. 2019 20:29

#	Program:	/corina/corina34_cracker 3.40 0067  02.08.2006

@<TRIPOS>MOLECULE
ASD03090883
  47   51    0    0    0
SMALL
NO_CHARGES


@<TRIPOS>ATOM
   1 C1             0.0521     1.4638    -0.0645 C.3     
   2 N2             0.0684    -0.0030    -0.0688 N.am    
   3 C3             1.0391    -0.6701     0.8147 C.3     
   4 C4             2.4418    -0.3090     0.3283 C.3     
   5 C5             2.5592     1.1722     0.0826 C.ar    
   6 C6             3.8360     1.7198     0.0455 C.ar    
   7 C7             4.0150     3.0678    -0.1841 C.ar    
   8 C8             2.9162     3.8838    -0.3802 C.ar    
   9 C9             1.6475     3.3437    -0.3403 C.ar    
  10 C10            1.4658     1.9874    -0.1054 C.ar    
  11 C11           -0.7714    -0.7112    -0.8494 C.2     
  12 O12           -0.7368    -1.9295    -0.8335 O.2     
  13 N13           -1.6420    -0.0780    -1.6407 N.2     
  14 S14           -2.5799    -2.4918    -2.5329 S.3     
  15 C15           -2.4714    -0.7775    -2.4116 C.2     
  16 N16           -3.4064    -0.2869    -3.2640 N.pl3   
  17 C17           -4.1471    -1.1964    -3.9556 C.2     
  18 C18           -3.8852    -2.4771    -3.7313 C.2     
  19 C19           -4.5569    -3.6693    -4.3625 C.3     
  20 O20           -4.3410     5.0908    -4.0887 O.3     
  21 C21           -5.5551     4.9508    -4.8498 C.3     
  22 O22           -5.4531     3.6313    -5.4170 O.3     
  23 C23           -4.6667     2.9233    -4.5546 C.ar    
  24 C24           -3.9824     3.8206    -3.7373 C.ar    
  25 C25           -4.4745     1.5615    -4.3967 C.ar    
  26 C26           -3.6011     1.0922    -3.4247 C.ar    
  27 C27           -2.9210     1.9885    -2.6118 C.ar    
  28 C28           -3.1124     3.3482    -2.7684 C.ar    
  29 F29           -6.6728     5.0411    -4.0133 F       
  30 F30           -5.6162     5.9167    -5.8600 F       
  31 H31           -0.4931     1.8230    -0.9373 H       
  32 H32           -0.4400     1.8185     0.8411 H       
  33 H33            0.9037    -0.3242     1.8395 H       
  34 H34            0.8991    -1.7501     0.7677 H       
  35 H35            3.1704    -0.6061     1.0826 H       
  36 H36            2.6485    -0.8437    -0.5988 H       
  37 H37            4.6957     1.0841     0.1981 H       
  38 H38            5.0109     3.4850    -0.2103 H       
  39 H39            3.0507     4.9396    -0.5635 H       
  40 H40            0.7888     3.9808    -0.4925 H       
  41 H41           -4.9118    -0.8894    -4.6538 H       
  42 H42           -4.1165    -4.5853    -3.9686 H       
  43 H43           -5.6222    -3.6502    -4.1324 H       
  44 H44           -4.4179    -3.6348    -5.4430 H       
  45 H45           -5.0042     0.8643    -5.0289 H       
  46 H46           -2.2417     1.6229    -1.8560 H       
  47 H47           -2.5817     4.0437    -2.1351 H       
@<TRIPOS>BOND
   1    1    2 1
   2    1   10 1
   3    1   31 1
   4    1   32 1
   5    2    3 1
   6    2   11 am
   7    3    4 1
   8    3   33 1
   9    3   34 1
  10    4    5 1
  11    4   35 1
  12    4   36 1
  13    5    6 ar
  14    5   10 ar
  15    6    7 ar
  16    6   37 1
  17    7    8 ar
  18    7   38 1
  19    8    9 ar
  20    8   39 1
  21    9   10 ar
  22    9   40 1
  23   11   12 2
  24   11   13 1
  25   13   15 2
  26   14   15 1
  27   14   18 1
  28   15   16 1
  29   16   17 1
  30   16   26 1
  31   17   18 2
  32   17   41 1
  33   18   19 1
  34   19   42 1
  35   19   43 1
  36   19   44 1
  37   20   21 1
  38   20   24 1
  39   21   22 1
  40   21   29 1
  41   21   30 1
  42   22   23 1
  43   23   24 ar
  44   23   25 ar
  45   24   28 ar
  46   25   26 ar
  47   25   45 1
  48   26   27 ar
  49   27   28 ar
  50   27   46 1
  51   28   47 1

#	End of record

