#	Name: ASD04880113
#	Creating user name:	WinNT
#	Creation time:	15. 06. 2019 20:52

#	Modifying user name:	WinNT
#	Modification time:	15. 06. 2019 20:52

#	Program:	/corina/corina34_cracker 3.40 0067  02.08.2006

@<TRIPOS>MOLECULE
ASD04880113
  54   57    0    0    0
SMALL
NO_CHARGES


@<TRIPOS>ATOM
   1 C1            -0.0163     1.3461     0.0580 C.2     
   2 N2            -0.0005     0.0024    -0.0019 N.am    
   3 C3             1.2595    -0.4654    -0.0531 C.2     
   4 C4             2.1906     0.6825    -0.0248 C.ar    
   5 C5             3.5687     0.8070    -0.0533 C.ar    
   6 C6             4.1486     2.0786    -0.0117 C.ar    
   7 C7             3.3419     3.2146     0.0586 C.ar    
   8 C8             1.9636     3.0917     0.0872 C.ar    
   9 C9             1.3808     1.8347     0.0458 C.ar    
  10 O10           -1.0103     2.0419     0.1083 O.2     
  11 O11            1.5790    -1.6356    -0.1122 O.2     
  12 C12           -1.1985    -0.8408    -0.0095 C.3     
  13 C13            5.6209     2.2197    -0.0418 C.2     
  14 O14            6.3277     1.2326     0.0248 O.2     
  15 N15            6.1788     3.4424    -0.1429 N.am    
  16 N16            5.4862     4.6355    -0.3383 N.2     
  17 C17            6.2413     5.6781    -0.4019 C.2     
  18 C18            7.6868     5.2653    -0.2394 C.3     
  19 C19            7.6183     3.7360    -0.0587 C.3     
  20 C20            8.4919     5.6271    -1.4892 C.3     
  21 C21            8.2959     5.9211     1.0015 C.3     
  22 C22            5.7686     7.0597    -0.6030 C.ar    
  23 C23            4.4022     7.3196    -0.7415 C.ar    
  24 C24            3.9647     8.6167    -0.9298 C.ar    
  25 C25            4.8848     9.6621    -0.9818 C.ar    
  26 C26            6.2408     9.4046    -0.8448 C.ar    
  27 C27            6.6847     8.1133    -0.6499 C.ar    
  28 O28            4.4523    10.9373    -1.1675 O.3     
  29 C29            5.4489    11.9605    -1.2108 C.3     
  30 O30            2.6360     8.8731    -1.0649 O.3     
  31 C31            1.7496     7.7540    -1.0020 C.3     
  32 H32            4.1926    -0.0729    -0.1070 H       
  33 H33            3.7950     4.1944     0.0912 H       
  34 H34            1.3430     3.9739     0.1420 H       
  35 H35           -2.0866    -0.2108     0.0400 H       
  36 H36           -1.2219    -1.4305    -0.9259 H       
  37 H37           -1.1782    -1.5085     0.8518 H       
  38 H38            8.0128     3.4451     0.9149 H       
  39 H39            8.1600     3.2322    -0.8592 H       
  40 H40            8.4690     6.7069    -1.6362 H       
  41 H41            9.5239     5.2992    -1.3640 H       
  42 H42            8.0564     5.1328    -2.3576 H       
  43 H43            7.7227     5.6334     1.8828 H       
  44 H44            9.3287     5.5920     1.1164 H       
  45 H45            8.2703     7.0050     0.8892 H       
  46 H46            3.6902     6.5085    -0.7017 H       
  47 H47            6.9504    10.2177    -0.8861 H       
  48 H48            7.7407     7.9163    -0.5384 H       
  49 H49            6.1377    11.7623    -2.0320 H       
  50 H50            4.9701    12.9278    -1.3636 H       
  51 H51            5.9990    11.9720    -0.2699 H       
  52 H52            1.9947     7.0512    -1.7983 H       
  53 H53            1.8558     7.2602    -0.0361 H       
  54 H54            0.7221     8.0970    -1.1237 H       
@<TRIPOS>BOND
   1    1    2 am
   2    1    9 1
   3    1   10 2
   4    2    3 am
   5    2   12 1
   6    3    4 1
   7    3   11 2
   8    4    5 ar
   9    4    9 ar
  10    5    6 ar
  11    5   32 1
  12    6    7 ar
  13    6   13 1
  14    7    8 ar
  15    7   33 1
  16    8    9 ar
  17    8   34 1
  18   12   35 1
  19   12   36 1
  20   12   37 1
  21   13   14 2
  22   13   15 am
  23   15   16 1
  24   15   19 1
  25   16   17 2
  26   17   18 1
  27   17   22 1
  28   18   19 1
  29   18   20 1
  30   18   21 1
  31   19   38 1
  32   19   39 1
  33   20   40 1
  34   20   41 1
  35   20   42 1
  36   21   43 1
  37   21   44 1
  38   21   45 1
  39   22   23 ar
  40   22   27 ar
  41   23   24 ar
  42   23   46 1
  43   24   25 ar
  44   24   30 1
  45   25   26 ar
  46   25   28 1
  47   26   27 ar
  48   26   47 1
  49   27   48 1
  50   28   29 1
  51   29   49 1
  52   29   50 1
  53   29   51 1
  54   30   31 1
  55   31   52 1
  56   31   53 1
  57   31   54 1

#	End of record

