#	Name: ASD01209241
#	Creating user name:	WinNT
#	Creation time:	15. 06. 2019 19:11

#	Modifying user name:	WinNT
#	Modification time:	15. 06. 2019 19:11

#	Program:	/corina/corina34_cracker 3.40 0067  02.08.2006

@<TRIPOS>MOLECULE
ASD01209241
  68   71    0    0    0
SMALL
NO_CHARGES


@<TRIPOS>ATOM
   1 O1            -0.0173     1.4248     0.0099 O.3     
   2 O2             2.1367     2.0777     1.3686 O.3     
   3 C3             7.0698     8.4626     4.4832 C.ar    
   4 C4             8.1926     9.1845     4.1052 C.ar    
   5 C5             8.5152     9.3207     2.7628 C.ar    
   6 C6             7.7173     8.7352     1.7939 C.ar    
   7 C7             6.5871     8.0082     2.1695 C.ar    
   8 C8             6.2690     7.8697     3.5211 C.ar    
   9 O9             9.6160    10.0294     2.3980 O.3     
  10 C10            5.7323     7.3818     1.1389 C.2     
  11 N11            4.6411     6.6801     1.5039 N.am    
  12 O12            6.0135     7.4998    -0.0378 O.2     
  13 C13            3.8379     6.0916     0.5356 C.2     
  14 P14            1.3209     2.3199     0.0019 P.3     
  15 O15            2.1650     1.9351    -1.1513 O.2     
  16 C16            0.8726     4.0817    -0.1342 C.3     
  17 N17            2.7697     5.3979     0.7779 N.2     
  18 S18            4.1098     6.1826    -1.1499 S.3     
  19 C19            2.6729     5.2070    -1.4451 C.2     
  20 C20            2.1248     4.9100    -0.2652 C.2     
  21 O21            6.7583     8.3322     5.7996 O.3     
  22 C22            0.0021    -0.0041     0.0020 C.3     
  23 C23           -1.4333    -0.5336     0.0129 C.3     
  24 C24            2.7182     0.8193     1.7153 C.3     
  25 C25            3.4161     0.9364     3.0718 C.3     
  26 C26            7.6307     8.9644     6.7384 C.3     
  27 C27            7.1223     8.7096     8.1588 C.3     
  28 O28            7.2256     7.2950     8.4922 O.3     
  29 C29            8.0470     7.1417     9.5368 C.2     
  30 N30            8.5539     8.2921    10.0010 N.am    
  31 C31            8.0322     9.4034     9.1908 C.3     
  32 O32            8.3091     6.0585    10.0209 O.2     
  33 C33           10.3940    10.6060     3.4488 C.3     
  34 C34           11.5828    11.3594     2.8488 C.3     
  35 O35           11.1242    12.5140     2.0875 O.3     
  36 C36           11.6195    13.6317     2.6305 C.2     
  37 N37           12.3899    13.4166     3.7057 N.am    
  38 C38           12.4538    11.9699     3.9637 C.3     
  39 O39           11.3923    14.7406     2.1887 O.2     
  40 H40            8.8171     9.6421     4.8582 H       
  41 H41            7.9688     8.8423     0.7490 H       
  42 H42            5.3953     7.3075     3.8162 H       
  43 H43            4.4166     6.5859     2.4429 H       
  44 H44            0.2452     4.2302    -1.0130 H       
  45 H45            0.3264     4.3876     0.7581 H       
  46 H46            2.2988     4.9052    -2.4122 H       
  47 H47            0.5123    -0.3556    -0.8948 H       
  48 H48            0.5293    -0.3651     0.8851 H       
  49 H49           -1.4185    -1.6235     0.0069 H       
  50 H50           -1.9435    -0.1821     0.9097 H       
  51 H51           -1.9605    -0.1726    -0.8702 H       
  52 H52            1.9368     0.0615     1.7729 H       
  53 H53            3.4459     0.5337     0.9558 H       
  54 H54            3.8596    -0.0235     3.3363 H       
  55 H55            4.1975     1.6941     3.0142 H       
  56 H56            2.6884     1.2219     3.8314 H       
  57 H57            8.6355     8.5551     6.6333 H       
  58 H58            7.6536    10.0373     6.5477 H       
  59 H59            6.0928     9.0524     8.2623 H       
  60 H60            9.1651     8.3779    10.7493 H       
  61 H61            8.8466     9.9284     8.6915 H       
  62 H62            7.4549    10.0903     9.8096 H       
  63 H63            9.7761    11.2985     4.0205 H       
  64 H64           10.7585     9.8166     4.1062 H       
  65 H65           12.1751    10.6965     2.2180 H       
  66 H66           12.8331    14.1030     4.2285 H       
  67 H67           12.0390    11.7372     4.9444 H       
  68 H68           13.4806    11.6122     3.8866 H       
@<TRIPOS>BOND
   1    1   22 1
   2    1   14 1
   3    2   24 1
   4    2   14 1
   5    3    4 ar
   6    3   21 1
   7    3    8 ar
   8    4    5 ar
   9    4   40 1
  10    5    6 ar
  11    5    9 1
  12    6    7 ar
  13    6   41 1
  14    7    8 ar
  15    7   10 1
  16    8   42 1
  17    9   33 1
  18   10   11 am
  19   10   12 2
  20   11   13 1
  21   11   43 1
  22   13   17 2
  23   13   18 1
  24   14   15 2
  25   14   16 1
  26   16   20 1
  27   16   44 1
  28   16   45 1
  29   17   20 1
  30   18   19 1
  31   19   20 2
  32   19   46 1
  33   21   26 1
  34   22   23 1
  35   22   47 1
  36   22   48 1
  37   23   49 1
  38   23   50 1
  39   23   51 1
  40   24   25 1
  41   24   52 1
  42   24   53 1
  43   25   54 1
  44   25   55 1
  45   25   56 1
  46   26   27 1
  47   26   57 1
  48   26   58 1
  49   27   28 1
  50   27   31 1
  51   27   59 1
  52   28   29 1
  53   29   30 am
  54   29   32 2
  55   30   31 1
  56   30   60 1
  57   31   61 1
  58   31   62 1
  59   33   34 1
  60   33   63 1
  61   33   64 1
  62   34   35 1
  63   34   38 1
  64   34   65 1
  65   35   36 1
  66   36   37 am
  67   36   39 2
  68   37   38 1
  69   37   66 1
  70   38   67 1
  71   38   68 1

#	End of record

