#	Name: ASD03240953
#	Creating user name:	WinNT
#	Creation time:	15. 06. 2019 20:35

#	Modifying user name:	WinNT
#	Modification time:	15. 06. 2019 20:35

#	Program:	/corina/corina34_cracker 3.40 0067  02.08.2006

@<TRIPOS>MOLECULE
ASD03240953
  67   72    0    0    0
SMALL
NO_CHARGES


@<TRIPOS>ATOM
   1 C1             0.1059     0.8804    -1.7663 C.3     
   2 C2             1.3863     0.1960    -2.2734 C.3     
   3 C3             2.0103     0.5276    -0.9075 C.3     
   4 C4             0.5794     0.5367    -0.3442 C.3     
   5 O5             0.0633     2.2838    -2.0320 O.3     
   6 C6            -1.1788     0.1574    -2.1760 C.3     
   7 C7             2.8706    -0.5783    -0.3524 C.ar    
   8 C8             3.9433    -0.2719     0.4657 C.ar    
   9 C9             4.7349    -1.2798     0.9767 C.ar    
  10 C10            4.4514    -2.6101     0.6672 C.ar    
  11 C11            3.3681    -2.9126    -0.1578 C.ar    
  12 C12            2.5808    -1.8960    -0.6584 C.ar    
  13 N13            6.8240    -6.7075     0.0233 N.pl3   
  14 C14            7.6055    -7.7217     0.5069 C.2     
  15 N15            8.0151    -7.7575     1.7873 N.2     
  16 C16            7.6906    -6.8253     2.6457 C.2     
  17 C17            6.8575    -5.7098     2.2017 C.ar    
  18 C18            6.4779    -4.6830     3.0726 C.ar    
  19 C19            5.6835    -3.6596     2.5661 C.ar    
  20 C20            5.2973    -3.6967     1.2119 C.ar    
  21 N21            5.6767    -4.6860     0.4171 N.ar    
  22 C22            6.4316    -5.6777     0.8568 C.ar    
  23 C23            7.8303    -8.5924    -0.5508 C.2     
  24 C24            7.1741    -8.0833    -1.6644 C.2     
  25 N25            6.5707    -6.9683    -1.3287 N.2     
  26 C26            5.2487    -2.5442     3.4404 C.ar    
  27 C27            3.9005    -2.3988     3.7731 C.ar    
  28 C28            3.5024    -1.3563     4.5887 C.ar    
  29 C29            4.4368    -0.4592     5.0737 C.ar    
  30 C30            5.7734    -0.5990     4.7463 C.ar    
  31 C31            6.1847    -1.6397     3.9381 C.ar    
  32 F32            2.9875    -3.2744     3.2989 F       
  33 C33            7.1536    -8.7130    -3.0334 C.3     
  34 C34            6.2160    -9.9220    -3.0247 C.3     
  35 C35            6.6577    -7.6904    -4.0577 C.3     
  36 C36            8.5663    -9.1658    -3.4077 C.3     
  37 N37            2.6682     1.8403    -0.8642 N.3     
  38 H38            1.2688    -0.8729    -2.4518 H       
  39 H39            1.8585     0.7159    -3.1069 H       
  40 H40            0.4003     1.3317     0.3797 H       
  41 H41            0.2413    -0.4390     0.0048 H       
  42 H42           -0.7397     2.7198    -1.7155 H       
  43 H43           -1.1700    -0.8554    -1.7732 H       
  44 H44           -2.0405     0.6971    -1.7832 H       
  45 H45           -1.2411     0.1154    -3.2634 H       
  46 H46            4.1618     0.7585     0.7046 H       
  47 H47            5.5726    -1.0393     1.6147 H       
  48 H48            3.1436    -3.9407    -0.4010 H       
  49 H49            1.7392    -2.1292    -1.2937 H       
  50 H50            8.0334    -6.8795     3.6684 H       
  51 H51            6.7912    -4.6851     4.1062 H       
  52 H52            8.4113    -9.5021    -0.5145 H       
  53 H53            2.4601    -1.2418     4.8475 H       
  54 H54            4.1214     0.3542     5.7104 H       
  55 H55            6.4979     0.1052     5.1280 H       
  56 H56            7.2295    -1.7499     3.6880 H       
  57 H57            5.2095    -9.5994    -2.7581 H       
  58 H58            6.2012   -10.3774    -4.0149 H       
  59 H59            6.5693   -10.6505    -2.2949 H       
  60 H60            7.3256    -6.8290    -4.0639 H       
  61 H61            6.6428    -8.1458    -5.0479 H       
  62 H62            5.6512    -7.3677    -3.7911 H       
  63 H63            8.9196    -9.8944    -2.6779 H       
  64 H64            8.5515    -9.6213    -4.3979 H       
  65 H65            9.2342    -8.3045    -3.4139 H       
  66 H66            3.0629     2.0171     0.0474 H       
  67 H67            3.3716     1.9162    -1.5836 H       
@<TRIPOS>BOND
   1    1    2 1
   2    1    4 1
   3    1    5 1
   4    1    6 1
   5    2    3 1
   6    2   38 1
   7    2   39 1
   8    3    4 1
   9    3    7 1
  10    3   37 1
  11    4   40 1
  12    4   41 1
  13    5   42 1
  14    6   43 1
  15    6   44 1
  16    6   45 1
  17    7    8 ar
  18    7   12 ar
  19    8    9 ar
  20    8   46 1
  21    9   10 ar
  22    9   47 1
  23   10   11 ar
  24   10   20 1
  25   11   12 ar
  26   11   48 1
  27   12   49 1
  28   13   14 1
  29   13   22 1
  30   13   25 1
  31   14   15 1
  32   14   23 2
  33   15   16 2
  34   16   17 1
  35   16   50 1
  36   17   18 ar
  37   17   22 ar
  38   18   19 ar
  39   18   51 1
  40   19   20 ar
  41   19   26 1
  42   20   21 ar
  43   21   22 ar
  44   23   24 1
  45   23   52 1
  46   24   25 2
  47   24   33 1
  48   26   27 ar
  49   26   31 ar
  50   27   28 ar
  51   27   32 1
  52   28   29 ar
  53   28   53 1
  54   29   30 ar
  55   29   54 1
  56   30   31 ar
  57   30   55 1
  58   31   56 1
  59   33   34 1
  60   33   36 1
  61   33   35 1
  62   34   57 1
  63   34   58 1
  64   34   59 1
  65   35   60 1
  66   35   61 1
  67   35   62 1
  68   36   63 1
  69   36   64 1
  70   36   65 1
  71   37   66 1
  72   37   67 1

#	End of record

