#	Name: ASD01140137
#	Creating user name:	WinNT
#	Creation time:	15. 06. 2019 19:00

#	Modifying user name:	WinNT
#	Modification time:	15. 06. 2019 19:00

#	Program:	/corina/corina34_cracker 3.40 0067  02.08.2006

@<TRIPOS>MOLECULE
ASD01140137
  29   30    0    0    0
SMALL
NO_CHARGES


@<TRIPOS>ATOM
   1 C1             1.6762     1.2996     1.1481 C.ar    
   2 C2             1.6556    -0.0767     1.0432 C.ar    
   3 C3             1.1720    -0.6772    -0.1172 C.ar    
   4 C4             0.7114     0.1162    -1.1662 C.ar    
   5 C5             0.7365     1.4911    -1.0507 C.ar    
   6 C6             1.2178     2.0821     0.1039 C.ar    
   7 C7             1.1479    -2.1561    -0.2359 C.ar    
   8 C8             1.8367    -2.7836    -1.2754 C.ar    
   9 C9             1.8190    -4.1571    -1.3915 C.ar    
  10 C10            1.1160    -4.9265    -0.4754 C.ar    
  11 C11            0.4206    -4.3054     0.5729 C.ar    
  12 C12            0.4445    -2.9154     0.6911 C.ar    
  13 O13            1.1009    -6.2774    -0.5935 O.3     
  14 C14           -0.3282    -5.1185     1.5485 C.2     
  15 O15           -0.9952    -4.5191     2.5543 O.3     
  16 O16           -0.3439    -6.3291     1.4456 O.2     
  17 C17            0.1873    -0.5261    -2.4247 C.3     
  18 F18           -0.3507     0.4578    -3.2613 F       
  19 F19            1.2333    -1.1790    -3.0855 F       
  20 F20           -0.8073    -1.4532    -2.0957 F       
  21 H21            2.0467     1.7660     2.0489 H       
  22 H22            2.0141    -0.6868     1.8591 H       
  23 H23            0.3802     2.1069    -1.8632 H       
  24 H24            1.2353     3.1585     0.1903 H       
  25 H25            2.3855    -2.1904    -1.9919 H       
  26 H26            2.3538    -4.6359    -2.1984 H       
  27 H27           -0.0886    -2.4308     1.4957 H       
  28 H28            1.8168    -6.7218    -0.1191 H       
  29 H29           -1.4715    -5.0938     3.1690 H       
@<TRIPOS>BOND
   1    1    2 ar
   2    1    6 ar
   3    1   21 1
   4    2    3 ar
   5    2   22 1
   6    3    4 ar
   7    3    7 1
   8    4    5 ar
   9    4   17 1
  10    5    6 ar
  11    5   23 1
  12    6   24 1
  13    7    8 ar
  14    7   12 ar
  15    8    9 ar
  16    8   25 1
  17    9   10 ar
  18    9   26 1
  19   10   11 ar
  20   10   13 1
  21   11   12 ar
  22   11   14 1
  23   12   27 1
  24   13   28 1
  25   14   15 1
  26   14   16 2
  27   15   29 1
  28   17   18 1
  29   17   19 1
  30   17   20 1

#	End of record

