#	Name: ASD01940352
#	Creating user name:	WinNT
#	Creation time:	15. 06. 2019 20:12

#	Modifying user name:	WinNT
#	Modification time:	15. 06. 2019 20:12

#	Program:	/corina/corina34_cracker 3.40 0067  02.08.2006

@<TRIPOS>MOLECULE
ASD01940352
  45   48    0    0    0
SMALL
NO_CHARGES


@<TRIPOS>ATOM
   1 C1            -0.3057     1.7146    -0.3074 C.3     
   2 C2            -0.3893     0.1877    -0.3589 C.3     
   3 C3             0.9719     0.8756    -0.2380 C.3     
   4 S4            -0.6284     2.6234    -1.8437 S.o2    
   5 O5             0.3469     2.3038    -2.8265 O.2     
   6 O6            -2.0151     2.6022    -2.1538 O.2     
   7 N7            -0.3197     4.2047    -1.4610 N.am    
   8 C8             0.9597     4.5856    -1.0352 C.ar    
   9 C9             1.1069     5.5761    -0.0648 C.ar    
  10 C10            2.3769     5.9491     0.3537 C.ar    
  11 C11            3.4934     5.3365    -0.1935 C.ar    
  12 C12            3.3446     4.3536    -1.1565 C.ar    
  13 C13            2.0816     3.9742    -1.5736 C.ar    
  14 N14           -0.0242     6.1937     0.4860 N.pl3   
  15 C15            0.1013     7.4154     1.1496 C.ar    
  16 C16            0.3229     8.5826     0.4223 C.ar    
  17 C17            0.4475     9.7903     1.0771 C.ar    
  18 C18            0.3508     9.8412     2.4679 C.ar    
  19 C19            0.1286     8.6714     3.1928 C.ar    
  20 C20           -0.0007     7.4666     2.5346 C.ar    
  21 C21            0.5221    12.4367     5.1843 C.ar    
  22 C22            0.3911    11.2099     4.5675 C.ar    
  23 C23            0.4848    11.1379     3.1742 C.ar    
  24 C24            0.7090    12.3221     2.4653 C.ar    
  25 C25            0.8280    13.5067     3.1620 C.ar    
  26 N26            0.7331    13.5310     4.4779 N.ar    
  27 F27            0.4163     8.5317    -0.9245 F       
  28 F28            4.7293     5.6999     0.2136 F       
  29 F29            2.5245     6.9086     1.2932 F       
  30 H30           -0.6354     2.2061     0.6079 H       
  31 H31           -0.7741    -0.3253     0.5225 H       
  32 H32           -0.6383    -0.2706    -1.3160 H       
  33 H33            1.6185     0.8698    -1.1155 H       
  34 H34            1.4828     0.8152     0.7230 H       
  35 H35           -1.0246     4.8674    -1.5317 H       
  36 H36            4.2170     3.8789    -1.5807 H       
  37 H37            1.9693     3.2037    -2.3220 H       
  38 H38           -0.8942     5.7723     0.4062 H       
  39 H39            0.6200    10.6954     0.5138 H       
  40 H40            0.0539     8.7093     4.2696 H       
  41 H41           -0.1773     6.5613     3.0963 H       
  42 H42            0.4467    12.5031     6.2596 H       
  43 H43            0.2189    10.3182     5.1520 H       
  44 H44            0.7880    12.3095     1.3883 H       
  45 H45            1.0011    14.4265     2.6233 H       
@<TRIPOS>BOND
   1    1    2 1
   2    1    3 1
   3    1    4 1
   4    1   30 1
   5    2    3 1
   6    2   31 1
   7    2   32 1
   8    3   33 1
   9    3   34 1
  10    4    5 2
  11    4    6 2
  12    4    7 am
  13    7    8 1
  14    7   35 1
  15    8    9 ar
  16    8   13 ar
  17    9   10 ar
  18    9   14 1
  19   10   11 ar
  20   10   29 1
  21   11   12 ar
  22   11   28 1
  23   12   13 ar
  24   12   36 1
  25   13   37 1
  26   14   15 1
  27   14   38 1
  28   15   16 ar
  29   15   20 ar
  30   16   17 ar
  31   16   27 1
  32   17   18 ar
  33   17   39 1
  34   18   19 ar
  35   18   23 1
  36   19   20 ar
  37   19   40 1
  38   20   41 1
  39   21   22 ar
  40   21   26 ar
  41   21   42 1
  42   22   23 ar
  43   22   43 1
  44   23   24 ar
  45   24   25 ar
  46   24   44 1
  47   25   26 ar
  48   25   45 1

#	End of record

