#	Name: ASD02500155
#	Creating user name:	WinNT
#	Creation time:	15. 06. 2019 20:22

#	Modifying user name:	WinNT
#	Modification time:	15. 06. 2019 20:22

#	Program:	/corina/corina34_cracker 3.40 0067  02.08.2006

@<TRIPOS>MOLECULE
ASD02500155
  63   67    0    0    0
SMALL
NO_CHARGES


@<TRIPOS>ATOM
   1 N1            -0.7717     0.8793    -1.0784 N.am    
   2 C2            -0.4376    -0.3561    -1.8008 C.3     
   3 C3             0.8024    -0.0981    -2.6656 C.3     
   4 N4             1.8333     0.5353    -1.8313 N.am    
   5 C5             1.4992     1.7708    -1.1089 C.3     
   6 C6             0.2591     1.5127    -0.2441 C.3     
   7 C7            -1.9997     1.4247    -1.1835 C.2     
   8 O8            -2.2897     2.4017    -0.5205 O.2     
   9 N9            -2.9061     0.8871    -2.0236 N.am    
  10 C10            3.0628    -0.0074    -1.7302 C.2     
  11 C11            4.1137     0.6852    -0.9606 C.ar    
  12 C12            5.0403    -0.0533    -0.2187 C.ar    
  13 C13            6.0194     0.5956     0.4982 C.ar    
  14 C14            6.0877     1.9861     0.4852 C.ar    
  15 C15            5.1661     2.7243    -0.2522 C.ar    
  16 C16            4.1885     2.0810    -0.9762 C.ar    
  17 O17            3.3059    -1.0678    -2.2733 O.2     
  18 S18            7.9626     3.8470     0.5031 S.o2    
  19 O19            7.0258     4.7331    -0.0939 O.2     
  20 O20            8.9190     4.2622     1.4685 O.2     
  21 N21            7.0782     2.6388     1.2106 N.am    
  22 N22           10.2468     1.9071     0.7114 N.ar    
  23 C23           11.2230     1.0721     0.9720 C.ar    
  24 C24           11.9689     0.4762    -0.0430 C.ar    
  25 C25           11.6889     0.7578    -1.3497 C.ar    
  26 C26           10.6394     1.6546    -1.6258 C.ar    
  27 C27           10.2941     1.9924    -2.9440 C.ar    
  28 C28            9.2727     2.8643    -3.1696 C.ar    
  29 C29            8.5645     3.4255    -2.1093 C.ar    
  30 C30            8.8732     3.1209    -0.8191 C.ar    
  31 C31            9.9214     2.2253    -0.5456 C.ar    
  32 C32           -4.1834     1.4409    -2.1192 C.ar    
  33 C33           -5.2841     0.6152    -2.3231 C.ar    
  34 C34           -6.5459     1.1582    -2.4184 C.ar    
  35 C35           -6.7200     2.5408    -2.3094 C.ar    
  36 C36           -5.6116     3.3673    -2.1040 C.ar    
  37 C37           -4.3535     2.8168    -2.0045 C.ar    
  38 C38           -8.0306     3.1092    -2.4083 C.1     
  39 N39           -9.0704     3.5600    -2.4869 N.1     
  40 H40           -0.2263    -1.1519    -1.0865 H       
  41 H41           -1.2739    -0.6452    -2.4374 H       
  42 H42            1.1785    -1.0433    -3.0571 H       
  43 H43            0.5415     0.5646    -3.4908 H       
  44 H44            2.3355     2.0598    -0.4723 H       
  45 H45            1.2879     2.5665    -1.8232 H       
  46 H46           -0.1169     2.4579     0.1474 H       
  47 H47            0.5200     0.8500     0.5811 H       
  48 H48           -2.6707     0.1153    -2.5619 H       
  49 H49            4.9876    -1.1320    -0.2080 H       
  50 H50            6.7353     0.0257     1.0718 H       
  51 H51            5.2212     3.8029    -0.2598 H       
  52 H52            3.4770     2.6541    -1.5522 H       
  53 H53            7.2511     2.3865     2.1312 H       
  54 H54           11.4558     0.8401     2.0008 H       
  55 H55           12.7678    -0.2073     0.2035 H       
  56 H56           12.2570     0.3052    -2.1490 H       
  57 H57           10.8356     1.5635    -3.7742 H       
  58 H58            9.0077     3.1236    -4.1840 H       
  59 H59            7.7590     4.1151    -2.3142 H       
  60 H60           -5.1489    -0.4529    -2.4073 H       
  61 H61           -7.4000     0.5166    -2.5774 H       
  62 H62           -5.7424     4.4360    -2.0196 H       
  63 H63           -3.4971     3.4543    -1.8414 H       
@<TRIPOS>BOND
   1    1    2 1
   2    1    6 1
   3    1    7 am
   4    2    3 1
   5    2   40 1
   6    2   41 1
   7    3    4 1
   8    3   42 1
   9    3   43 1
  10    4    5 1
  11    4   10 am
  12    5    6 1
  13    5   44 1
  14    5   45 1
  15    6   46 1
  16    6   47 1
  17    7    8 2
  18    7    9 am
  19    9   32 1
  20    9   48 1
  21   10   11 1
  22   10   17 2
  23   11   12 ar
  24   11   16 ar
  25   12   13 ar
  26   12   49 1
  27   13   14 ar
  28   13   50 1
  29   14   15 ar
  30   14   21 1
  31   15   16 ar
  32   15   51 1
  33   16   52 1
  34   18   19 2
  35   18   20 2
  36   18   21 am
  37   18   30 1
  38   21   53 1
  39   22   23 ar
  40   22   31 ar
  41   23   24 ar
  42   23   54 1
  43   24   25 ar
  44   24   55 1
  45   25   26 ar
  46   25   56 1
  47   26   27 ar
  48   26   31 ar
  49   27   28 ar
  50   27   57 1
  51   28   29 ar
  52   28   58 1
  53   29   30 ar
  54   29   59 1
  55   30   31 ar
  56   32   33 ar
  57   32   37 ar
  58   33   34 ar
  59   33   60 1
  60   34   35 ar
  61   34   61 1
  62   35   36 ar
  63   35   38 1
  64   36   37 ar
  65   36   62 1
  66   37   63 1
  67   38   39 3

#	End of record

