#	Name: ASD01900588
#	Creating user name:	WinNT
#	Creation time:	15. 06. 2019 19:52

#	Modifying user name:	WinNT
#	Modification time:	15. 06. 2019 19:52

#	Program:	/corina/corina34_cracker 3.40 0067  02.08.2006

@<TRIPOS>MOLECULE
ASD01900588
  38   41    0    0    0
SMALL
NO_CHARGES


@<TRIPOS>ATOM
   1 C1            -0.0165     1.3641     0.0095 C.2     
   2 N2             0.0021    -0.0041     0.0020 N.pl3   
   3 C3             1.3280    -0.3945    -0.0127 C.ar    
   4 C4             2.0851     0.7912    -0.0136 C.ar    
   5 N5             1.2098     1.8248     0.0003 N.2     
   6 C6             3.4817     0.7168    -0.0273 C.ar    
   7 C7             4.1018    -0.5187    -0.0399 C.ar    
   8 C8             3.3429    -1.6886    -0.0394 C.ar    
   9 C9             1.9667    -1.6270    -0.0255 C.ar    
  10 C10           -1.2388     2.1984     0.0201 C.ar    
  11 C11           -1.1274     3.5883     0.0271 C.ar    
  12 C12           -2.2800     4.3551     0.0364 C.ar    
  13 C13           -3.5068     3.7068     0.0384 C.ar    
  14 C14           -3.5438     2.3237     0.0311 C.ar    
  15 N15           -2.4326     1.6175     0.0172 N.ar    
  16 S16            5.8611    -0.6158    -0.0572 S.3     
  17 C17            6.1710    -2.4031    -0.0698 C.3     
  18 C18            7.6567    -2.6552    -0.0853 C.ar    
  19 C19            8.3504    -2.7773     1.1058 C.ar    
  20 C20            9.7140    -3.0092     1.0907 C.ar    
  21 C21           10.3830    -3.1187    -0.1141 C.ar    
  22 C22            9.6896    -2.9961    -1.3035 C.ar    
  23 C23            8.3257    -2.7700    -1.2891 C.ar    
  24 Cl24           7.5097    -2.6392     2.6183 Cl      
  25 H25           -0.7707    -0.5903     0.0065 H       
  26 H26            4.0731     1.6205    -0.0285 H       
  27 H27            3.8371    -2.6488    -0.0496 H       
  28 H28            1.3851    -2.5370    -0.0248 H       
  29 H29           -0.1559     4.0600     0.0256 H       
  30 H30           -2.2255     5.4337     0.0423 H       
  31 H31           -4.4242     4.2766     0.0460 H       
  32 H32           -4.4972     1.8164     0.0327 H       
  33 H33            5.7354    -2.8537     0.8220 H       
  34 H34            5.7184    -2.8441    -0.9579 H       
  35 H35           10.2560    -3.1043     2.0200 H       
  36 H36           11.4476    -3.2997    -0.1260 H       
  37 H37           10.2128    -3.0810    -2.2445 H       
  38 H38            7.7837    -2.6788    -2.2188 H       
@<TRIPOS>BOND
   1    1    2 1
   2    1    5 2
   3    1   10 1
   4    2    3 1
   5    2   25 1
   6    3    4 ar
   7    3    9 ar
   8    4    5 1
   9    4    6 ar
  10    6    7 ar
  11    6   26 1
  12    7    8 ar
  13    7   16 1
  14    8    9 ar
  15    8   27 1
  16    9   28 1
  17   10   11 ar
  18   10   15 ar
  19   11   12 ar
  20   11   29 1
  21   12   13 ar
  22   12   30 1
  23   13   14 ar
  24   13   31 1
  25   14   15 ar
  26   14   32 1
  27   16   17 1
  28   17   18 1
  29   17   33 1
  30   17   34 1
  31   18   19 ar
  32   18   23 ar
  33   19   20 ar
  34   19   24 1
  35   20   21 ar
  36   20   35 1
  37   21   22 ar
  38   21   36 1
  39   22   23 ar
  40   22   37 1
  41   23   38 1

#	End of record

