#	Name: ASD01410785
#	Creating user name:	WinNT
#	Creation time:	15. 06. 2019 19:18

#	Modifying user name:	WinNT
#	Modification time:	15. 06. 2019 19:18

#	Program:	/corina/corina34_cracker 3.40 0067  02.08.2006

@<TRIPOS>MOLECULE
ASD01410785
  74   77    0    0    0
SMALL
NO_CHARGES


@<TRIPOS>ATOM
   1 C1            -1.9750     3.3726     1.7005 C.ar    
   2 C2            -1.8448     1.0808     0.9889 C.ar    
   3 C3            -3.2100     0.9350     1.1919 C.ar    
   4 C4            -3.9638     2.0194     1.6664 C.ar    
   5 C5            -3.3352     3.2422     1.9134 C.ar    
   6 O6            -1.3615     4.5608     1.9461 O.3     
   7 C7            -1.0474     5.3467     0.8857 C.ar    
   8 N8            -3.8284    -0.2880     0.9363 N.am    
   9 C9            -3.8875    -1.2279     1.9005 C.2     
  10 C10           -3.3455    -0.9321     3.2752 C.3     
  11 O11           -4.3769    -2.3116     1.6619 O.2     
  12 C12           -4.1917    -1.6569     4.3239 C.3     
  13 C13           -1.3462    -1.1144     4.7625 C.3     
  14 C14           -2.1923    -1.8392     5.8111 C.3     
  15 C15           -3.6414    -1.3567     5.7195 C.3     
  16 C16           -1.6421    -1.5389     7.2068 C.3     
  17 N17           -1.2857     4.9159    -0.3423 N.ar    
  18 C18           -0.4841     6.5981     1.0998 C.ar    
  19 C19           -0.1688     7.3902     0.0094 C.ar    
  20 C20           -0.4295     6.8997    -1.2625 C.ar    
  21 C21           -0.9962     5.6480    -1.4010 C.ar    
  22 C22           -1.8965    -1.4146     3.3668 C.3     
  23 C23           -1.2320     2.2913     1.2418 C.ar    
  24 C24           -4.4140    -0.5517    -0.3804 C.3     
  25 C25           -3.3753    -1.1759    -1.2763 C.ar    
  26 C26           -2.7062    -0.4009    -2.2032 C.ar    
  27 C27           -1.7529    -0.9731    -3.0256 C.ar    
  28 C28           -1.4673    -2.3217    -2.9223 C.ar    
  29 C29           -2.1342    -3.1015    -1.9970 C.ar    
  30 C30           -3.0864    -2.5286    -1.1667 C.ar    
  31 O31           -3.7437    -3.2934    -0.2557 O.3     
  32 C32           -3.3452    -4.6616    -0.1490 C.3     
  33 C33           -3.7009    -5.1893     1.2424 C.3     
  34 C34           -4.0736    -5.4892    -1.2099 C.3     
  35 C35           -0.2203     7.0871     2.5006 C.3     
  36 F36            0.3461     8.3653     2.4494 F       
  37 F37           -1.4243     7.1387     3.2111 F       
  38 F38            0.6624     6.2113     3.1418 F       
  39 C39           -5.4142     1.8745     1.8847 C.2     
  40 O40           -5.9604     0.8139     1.6537 O.2     
  41 O41           -6.1346     2.9182     2.3403 O.3     
  42 H42           -1.2623     0.2478     0.6239 H       
  43 H43           -3.9103     4.0839     2.2702 H       
  44 H44           -3.3830     0.1419     3.4573 H       
  45 H45           -5.2240    -1.3132     4.2586 H       
  46 H46           -4.1542    -2.7310     4.1418 H       
  47 H47           -1.3837    -0.0403     4.9445 H       
  48 H48           -0.3139    -1.4581     4.8277 H       
  49 H49           -2.1549    -2.9132     5.6291 H       
  50 H50           -3.6789    -0.2826     5.9016 H       
  51 H51           -4.2442    -1.8730     6.4666 H       
  52 H52           -1.6796    -0.4649     7.3888 H       
  53 H53           -2.2449    -2.0553     7.9539 H       
  54 H54           -0.6098    -1.8827     7.2720 H       
  55 H55            0.2698     8.3677     0.1452 H       
  56 H56           -0.1958     7.4925    -2.1345 H       
  57 H57           -1.2007     5.2616    -2.3885 H       
  58 H58           -1.8590    -2.4887     3.1848 H       
  59 H59           -1.2937    -0.8983     2.6198 H       
  60 H60           -0.1693     2.3990     1.0820 H       
  61 H61           -5.2579    -1.2331    -0.2729 H       
  62 H62           -4.7570     0.3851    -0.8197 H       
  63 H63           -2.9278     0.6529    -2.2861 H       
  64 H64           -1.2310    -0.3654    -3.7500 H       
  65 H65           -0.7224    -2.7663    -3.5657 H       
  66 H66           -1.9110    -4.1551    -1.9169 H       
  67 H67           -2.2690    -4.7396    -0.3030 H       
  68 H68           -4.7771    -5.1112     1.3964 H       
  69 H69           -3.3969    -6.2329     1.3238 H       
  70 H70           -3.1820    -4.5997     1.9982 H       
  71 H71           -5.1498    -5.4111    -1.0558 H       
  72 H72           -3.8202    -5.1132    -2.2011 H       
  73 H73           -3.7696    -6.5327    -1.1284 H       
  74 H74           -7.0824     2.7751     2.4679 H       
@<TRIPOS>BOND
   1    1   23 ar
   2    1    6 1
   3    1    5 ar
   4    2    3 ar
   5    2   23 ar
   6    2   42 1
   7    3    4 ar
   8    3    8 1
   9    4    5 ar
  10    4   39 1
  11    5   43 1
  12    6    7 1
  13    7   18 ar
  14    7   17 ar
  15    8    9 am
  16    8   24 1
  17    9   11 2
  18    9   10 1
  19   10   12 1
  20   10   22 1
  21   10   44 1
  22   12   15 1
  23   12   45 1
  24   12   46 1
  25   13   14 1
  26   13   22 1
  27   13   47 1
  28   13   48 1
  29   14   15 1
  30   14   16 1
  31   14   49 1
  32   15   50 1
  33   15   51 1
  34   16   52 1
  35   16   53 1
  36   16   54 1
  37   17   21 ar
  38   18   19 ar
  39   18   35 1
  40   19   20 ar
  41   19   55 1
  42   20   21 ar
  43   20   56 1
  44   21   57 1
  45   22   58 1
  46   22   59 1
  47   23   60 1
  48   24   25 1
  49   24   61 1
  50   24   62 1
  51   25   26 ar
  52   25   30 ar
  53   26   27 ar
  54   26   63 1
  55   27   28 ar
  56   27   64 1
  57   28   29 ar
  58   28   65 1
  59   29   30 ar
  60   29   66 1
  61   30   31 1
  62   31   32 1
  63   32   33 1
  64   32   34 1
  65   32   67 1
  66   33   68 1
  67   33   69 1
  68   33   70 1
  69   34   71 1
  70   34   72 1
  71   34   73 1
  72   35   36 1
  73   35   37 1
  74   35   38 1
  75   39   40 2
  76   39   41 1
  77   41   74 1

#	End of record

