#	Name: ASD03731891
#	Creating user name:	WinNT
#	Creation time:	15. 06. 2019 20:46

#	Modifying user name:	WinNT
#	Modification time:	15. 06. 2019 20:46

#	Program:	/corina/corina34_cracker 3.40 0067  02.08.2006

@<TRIPOS>MOLECULE
ASD03731891
  38   39    0    0    0
SMALL
NO_CHARGES


@<TRIPOS>ATOM
   1 C1            -0.1153     1.4085    -0.8500 C.2     
   2 C2            -0.0715    -0.0487    -0.6474 C.ar    
   3 C3             1.1610    -0.7141    -0.5951 C.ar    
   4 C4             1.1970    -2.0793    -0.4051 C.ar    
   5 C5             0.0118    -2.7951    -0.2656 C.ar    
   6 C6            -1.2159    -2.1355    -0.3173 C.ar    
   7 C7            -1.2602    -0.7728    -0.5007 C.ar    
   8 O8             0.9181     2.0364    -0.9722 O.2     
   9 O9            -1.3017     2.0458    -0.9056 O.3     
  10 F10            2.3116    -0.0192    -0.7310 F       
  11 S11            0.0623    -4.5397    -0.0237 S.3     
  12 C12            1.7759    -4.9137    -0.1921 C.ar    
  13 C13            2.5910    -4.9646     0.9321 C.ar    
  14 C14            3.9343    -5.2587     0.7968 C.ar    
  15 C15            4.4678    -5.5025    -0.4583 C.ar    
  16 C16            3.6578    -5.4523    -1.5788 C.ar    
  17 C17            2.3133    -5.1640    -1.4486 C.ar    
  18 Cl18           6.1560    -5.8712    -0.6254 Cl      
  19 Cl19           4.9541    -5.3220     2.2002 Cl      
  20 Cl20          -2.6905    -3.0346    -0.1425 Cl      
  21 C21           -1.2690     3.4833    -1.1076 C.3     
  22 C22           -0.5717     3.7963    -2.4330 C.3     
  23 C23           -2.6991     4.0261    -1.1430 C.3     
  24 C24           -0.5017     4.1423     0.0404 C.3     
  25 H25            2.1458    -2.5936    -0.3649 H       
  26 H26           -2.2116    -0.2628    -0.5357 H       
  27 H27            2.1752    -4.7742     1.9105 H       
  28 H28            4.0765    -5.6428    -2.5559 H       
  29 H29            1.6810    -5.1294    -2.3234 H       
  30 H30           -1.1184     3.3268    -3.2509 H       
  31 H31           -0.5472     4.8754    -2.5847 H       
  32 H32            0.4471     3.4097    -2.4078 H       
  33 H33           -3.1958     3.8031    -0.1988 H       
  34 H34           -2.6745     5.1052    -1.2947 H       
  35 H35           -3.2457     3.5566    -1.9609 H       
  36 H36            0.5171     3.7557     0.0656 H       
  37 H37           -0.4771     5.2215    -0.1113 H       
  38 H38           -0.9985     3.9194     0.9846 H       
@<TRIPOS>BOND
   1    1    2 1
   2    1    8 2
   3    1    9 1
   4    2    3 ar
   5    2    7 ar
   6    3    4 ar
   7    3   10 1
   8    4    5 ar
   9    4   25 1
  10    5    6 ar
  11    5   11 1
  12    6    7 ar
  13    6   20 1
  14    7   26 1
  15    9   21 1
  16   11   12 1
  17   12   13 ar
  18   12   17 ar
  19   13   14 ar
  20   13   27 1
  21   14   15 ar
  22   14   19 1
  23   15   16 ar
  24   15   18 1
  25   16   17 ar
  26   16   28 1
  27   17   29 1
  28   21   22 1
  29   21   24 1
  30   21   23 1
  31   22   30 1
  32   22   31 1
  33   22   32 1
  34   23   33 1
  35   23   34 1
  36   23   35 1
  37   24   36 1
  38   24   37 1
  39   24   38 1

#	End of record

