#	Name: ASD01411074
#	Creating user name:	WinNT
#	Creation time:	15. 06. 2019 19:19

#	Modifying user name:	WinNT
#	Modification time:	15. 06. 2019 19:19

#	Program:	/corina/corina34_cracker 3.40 0067  02.08.2006

@<TRIPOS>MOLECULE
ASD01411074
  61   66    0    0    0
SMALL
NO_CHARGES


@<TRIPOS>ATOM
   1 C1             1.0950     1.3836     1.1972 C.ar    
   2 C2             1.1109     0.0028     1.1875 C.ar    
   3 C3             1.1773     2.0866     0.0020 C.ar    
   4 C4             1.2085    -0.6809    -0.0106 C.ar    
   5 C5             1.2752     1.3984    -1.1997 C.ar    
   6 N6             1.1609     3.4866     0.0092 N.am    
   7 C7             1.2907     0.0160    -1.2033 C.ar    
   8 C8            -0.0180     4.1358    -0.0733 C.2     
   9 C9             2.3556     4.1806     0.1067 C.2     
  10 Cl10           1.4131    -0.8462    -2.7051 Cl      
  11 C11           -0.0206     5.6065    -0.0641 C.ar    
  12 O12           -1.0618     3.5155    -0.1543 O.2     
  13 N13            2.3849     5.5423     0.1177 N.pl3   
  14 N14            3.5951     3.7461     0.2000 N.2     
  15 C15            1.2101     6.2813     0.0306 C.ar    
  16 C16           -1.2108     6.3304    -0.1474 C.ar    
  17 C17            1.2321     7.6644     0.0410 C.ar    
  18 C18           -1.1770     7.6961    -0.1367 C.ar    
  19 C19            0.0388     8.3716    -0.0422 C.ar    
  20 C20            3.7029     5.9216     0.2223 C.2     
  21 C21            4.4314     4.7922     0.2716 C.2     
  22 N22            0.0575     9.7624    -0.0319 N.pl3   
  23 C23           -1.1977    10.5126    -0.1203 C.3     
  24 C24           -1.0139    11.8942     0.5138 C.3     
  25 C25           -2.3093    12.6952     0.3643 C.3     
  26 N26           -2.6409    12.8306    -1.0598 N.3     
  27 C27           -2.8685    11.5187    -1.6791 C.3     
  28 C28           -1.5898    10.6826    -1.5906 C.3     
  29 C29           -3.9626    14.0228    -2.7141 C.ar    
  30 C30           -4.7421    13.2074    -3.5132 C.ar    
  31 C31           -4.8940    13.4971    -4.8563 C.ar    
  32 C32           -4.2669    14.6025    -5.4002 C.ar    
  33 C33           -3.4882    15.4184    -4.6009 C.ar    
  34 C34           -3.3351    15.1279    -3.2581 C.ar    
  35 C35           -3.8020    13.7105    -1.2486 C.3     
  36 H36            1.0143     1.9165     2.1331 H       
  37 H37            1.0473    -0.5439     2.1167 H       
  38 H38            1.2211    -1.7608    -0.0154 H       
  39 H39            1.3390     1.9422    -2.1306 H       
  40 H40           -2.1558     5.8126    -0.2205 H       
  41 H41            2.1718     8.1918     0.1137 H       
  42 H42           -2.0982     8.2560    -0.2012 H       
  43 H43            4.0805     6.9328     0.2581 H       
  44 H44            5.5068     4.7370     0.3546 H       
  45 H45            0.9017    10.2356     0.0338 H       
  46 H46           -1.9834     9.9715     0.4070 H       
  47 H47           -0.7764    11.7805     1.5715 H       
  48 H48           -0.2012    12.4196     0.0122 H       
  49 H49           -3.1186    12.1761     0.8779 H       
  50 H50           -2.1771    13.6846     0.8021 H       
  51 H51           -3.6752    11.0052    -1.1560 H       
  52 H52           -3.1425    11.6537    -2.7255 H       
  53 H53           -0.7862    11.1890    -2.1253 H       
  54 H54           -1.7637     9.7033    -2.0364 H       
  55 H55           -5.2320    12.3438    -3.0883 H       
  56 H56           -5.5023    12.8597    -5.4807 H       
  57 H57           -4.3850    14.8284    -6.4496 H       
  58 H58           -2.9977    16.2816    -5.0259 H       
  59 H59           -2.7262    15.7649    -2.6338 H       
  60 H60           -4.6994    13.2113    -0.8830 H       
  61 H61           -3.6501    14.6366    -0.6942 H       
@<TRIPOS>BOND
   1    1    2 ar
   2    1    3 ar
   3    1   36 1
   4    2    4 ar
   5    2   37 1
   6    3    5 ar
   7    3    6 1
   8    4    7 ar
   9    4   38 1
  10    5    7 ar
  11    5   39 1
  12    6    9 1
  13    6    8 am
  14    7   10 1
  15    8   11 1
  16    8   12 2
  17    9   13 1
  18    9   14 2
  19   11   15 ar
  20   11   16 ar
  21   13   20 1
  22   13   15 1
  23   14   21 1
  24   15   17 ar
  25   16   18 ar
  26   16   40 1
  27   17   19 ar
  28   17   41 1
  29   18   19 ar
  30   18   42 1
  31   19   22 1
  32   20   21 2
  33   20   43 1
  34   21   44 1
  35   22   23 1
  36   22   45 1
  37   23   24 1
  38   23   28 1
  39   23   46 1
  40   24   25 1
  41   24   47 1
  42   24   48 1
  43   25   26 1
  44   25   49 1
  45   25   50 1
  46   26   27 1
  47   26   35 1
  48   27   28 1
  49   27   51 1
  50   27   52 1
  51   28   53 1
  52   28   54 1
  53   29   30 ar
  54   29   34 ar
  55   29   35 1
  56   30   31 ar
  57   30   55 1
  58   31   32 ar
  59   31   56 1
  60   32   33 ar
  61   32   57 1
  62   33   34 ar
  63   33   58 1
  64   34   59 1
  65   35   60 1
  66   35   61 1

#	End of record

