#	Name: ASD02500038
#	Creating user name:	WinNT
#	Creation time:	15. 06. 2019 20:22

#	Modifying user name:	WinNT
#	Modification time:	15. 06. 2019 20:22

#	Program:	/corina/corina34_cracker 3.40 0067  02.08.2006

@<TRIPOS>MOLECULE
ASD02500038
  65   69    0    0    0
SMALL
NO_CHARGES


@<TRIPOS>ATOM
   1 C1            -0.0971     0.3897     4.0383 C.ar    
   2 C2            -0.7860     1.3036     4.8145 C.ar    
   3 C3            -0.4871     2.6509     4.7317 C.ar    
   4 C4             0.5020     3.0913     3.8726 C.ar    
   5 C5             1.1976     2.1802     3.0912 C.ar    
   6 C6             0.8957     0.8228     3.1752 C.ar    
   7 N7             2.1994     2.6237     2.2201 N.3     
   8 C8             3.5206     2.1478     2.6513 C.3     
   9 C9             4.5602     2.4981     1.5813 C.3     
  10 N10            4.4784     3.9403     1.3048 N.am    
  11 C11            3.1602     4.5166     0.9991 C.3     
  12 C12            2.1757     4.0869     2.0919 C.3     
  13 C13            5.5821     4.7134     1.3314 C.2     
  14 O14            6.6468     4.2414     1.6809 O.2     
  15 C15            5.4984     6.1324     0.9365 C.ar    
  16 C16            6.3224     7.0801     1.5506 C.ar    
  17 C17            6.2420     8.4029     1.1801 C.ar    
  18 C18            5.3411     8.7978     0.1948 C.ar    
  19 C19            4.5191     7.8564    -0.4186 C.ar    
  20 C20            4.5989     6.5311    -0.0566 C.ar    
  21 N21            5.2619    10.1352    -0.1770 N.am    
  22 S22            4.7384    10.5432    -1.6942 S.o2    
  23 O23            4.7532    11.9628    -1.7556 O.2     
  24 C24            5.9586     9.9831    -2.8352 C.ar    
  25 C25            7.2518    10.5335    -2.8118 C.ar    
  26 C26            8.2160    10.0667    -3.7394 C.ar    
  27 C27            7.8653     9.0674    -4.6611 C.ar    
  28 C28            6.6025     8.5580    -4.6531 C.ar    
  29 C29            5.6543     9.0119    -3.7389 C.ar    
  30 O30            3.5737     9.7668    -1.9391 O.2     
  31 N31            7.5809    11.4849    -1.9322 N.ar    
  32 C32            8.7853    12.0018    -1.9064 C.ar    
  33 C33            9.7798    11.5881    -2.7902 C.ar    
  34 C34            9.5106    10.6192    -3.7143 C.ar    
  35 C35            5.6416    11.1834     0.7734 C.3     
  36 O36            1.5747    -0.0751     2.4118 O.3     
  37 C37            1.2954    -1.4587     2.6348 C.3     
  38 H38           -0.3303    -0.6625     4.1084 H       
  39 H39           -1.5599     0.9639     5.4869 H       
  40 H40           -1.0281     3.3610     5.3396 H       
  41 H41            0.7330     4.1444     3.8093 H       
  42 H42            3.7908     2.6277     3.5919 H       
  43 H43            3.4906     1.0670     2.7893 H       
  44 H44            5.5575     2.2509     1.9451 H       
  45 H45            4.3506     1.9381     0.6700 H       
  46 H46            3.2320     5.6040     0.9779 H       
  47 H47            2.8161     4.1507     0.0317 H       
  48 H48            1.1705     4.4124     1.8243 H       
  49 H49            2.4647     4.5398     3.0403 H       
  50 H50            7.0212     6.7744     2.3153 H       
  51 H51            6.8780     9.1356     1.6544 H       
  52 H52            3.8211     8.1658    -1.1824 H       
  53 H53            3.9613     5.8012    -0.5330 H       
  54 H54            8.5927     8.7051    -5.3724 H       
  55 H55            6.3335     7.7893    -5.3625 H       
  56 H56            4.6594     8.5918    -3.7525 H       
  57 H57            9.0126    12.7689    -1.1810 H       
  58 H58           10.7628    12.0333    -2.7445 H       
  59 H59           10.2696    10.2864    -4.4067 H       
  60 H60            6.7033    11.4050     0.6649 H       
  61 H61            5.0602    12.0835     0.5730 H       
  62 H62            5.4437    10.8418     1.7893 H       
  63 H63            1.9638    -2.0671     2.0255 H       
  64 H64            1.4477    -1.6950     3.6879 H       
  65 H65            0.2616    -1.6693     2.3609 H       
@<TRIPOS>BOND
   1    1    2 ar
   2    1    6 ar
   3    1   38 1
   4    2    3 ar
   5    2   39 1
   6    3    4 ar
   7    3   40 1
   8    4    5 ar
   9    4   41 1
  10    5    6 ar
  11    5    7 1
  12    6   36 1
  13    7    8 1
  14    7   12 1
  15    8    9 1
  16    8   42 1
  17    8   43 1
  18    9   10 1
  19    9   44 1
  20    9   45 1
  21   10   11 1
  22   10   13 am
  23   11   12 1
  24   11   46 1
  25   11   47 1
  26   12   48 1
  27   12   49 1
  28   13   14 2
  29   13   15 1
  30   15   16 ar
  31   15   20 ar
  32   16   17 ar
  33   16   50 1
  34   17   18 ar
  35   17   51 1
  36   18   19 ar
  37   18   21 1
  38   19   20 ar
  39   19   52 1
  40   20   53 1
  41   21   22 am
  42   21   35 1
  43   22   23 2
  44   22   24 1
  45   22   30 2
  46   24   25 ar
  47   24   29 ar
  48   25   26 ar
  49   25   31 ar
  50   26   27 ar
  51   26   34 ar
  52   27   28 ar
  53   27   54 1
  54   28   29 ar
  55   28   55 1
  56   29   56 1
  57   31   32 ar
  58   32   33 ar
  59   32   57 1
  60   33   34 ar
  61   33   58 1
  62   34   59 1
  63   35   60 1
  64   35   61 1
  65   35   62 1
  66   36   37 1
  67   37   63 1
  68   37   64 1
  69   37   65 1

#	End of record

