#	Name: ASD08170041
#	Creating user name:	WinNT
#	Creation time:	15. 06. 2019 21:17

#	Modifying user name:	WinNT
#	Modification time:	15. 06. 2019 21:17

#	Program:	/corina/corina34_cracker 3.40 0067  02.08.2006

@<TRIPOS>MOLECULE
ASD08170041
  55   56    0    0    0
SMALL
NO_CHARGES


@<TRIPOS>ATOM
   1 C1            -0.1435     1.5404     0.0254 C.3     
   2 C2            -0.1102     0.0338     0.0129 C.2     
   3 C3            -1.2315    -2.0561     0.0133 C.2     
   4 N4            -0.1597    -2.7896    -0.0084 N.2     
   5 N5            -0.3075    -4.0434    -0.0111 N.2     
   6 C6            -1.5256    -4.4834     0.0082 C.2     
   7 S7            -2.6009    -3.0853     0.0328 S.3     
   8 C8            -1.9482    -5.9299     0.0091 C.3     
   9 C9            -2.0666    -6.4258     1.4516 C.3     
  10 C10           -2.4957    -7.8944     1.4525 C.3     
  11 C11           -2.6141    -8.3903     2.8951 C.3     
  12 C12           -3.0367    -9.8368     2.8959 C.2     
  13 O13            0.9531    -0.5491    -0.0079 O.2     
  14 N14           -1.2622    -0.6657     0.0248 N.am    
  15 C15            1.2658     2.0741     0.0083 C.ar    
  16 C16            1.8939     2.3285    -1.1966 C.ar    
  17 C17            3.1866     2.8180    -1.2123 C.ar    
  18 C18            3.8509     3.0536    -0.0232 C.ar    
  19 C19            3.2225     2.8001     1.1816 C.ar    
  20 C20            1.9283     2.3147     1.1974 C.ar    
  21 O21           -3.2247   -10.4142     1.8461 O.2     
  22 N22           -3.2058   -10.4888     4.0633 N.am    
  23 C23           -2.8620    -9.8307     5.3263 C.3     
  24 C24           -3.7332   -11.8555     4.0693 C.3     
  25 C25           -4.1097   -12.2631     2.6434 C.3     
  26 C26           -2.6670   -12.8113     4.6083 C.3     
  27 C27           -4.9739   -11.9194     4.9624 C.3     
  28 H28           -0.6787     1.8994    -0.8537 H       
  29 H29           -0.6516     1.8852     0.9260 H       
  30 H30           -2.9130    -6.0268    -0.4888 H       
  31 H31           -1.2048    -6.5259    -0.5202 H       
  32 H32           -1.1018    -6.3289     1.9495 H       
  33 H33           -2.8100    -5.8297     1.9809 H       
  34 H34           -3.4605    -7.9913     0.9547 H       
  35 H35           -1.7522    -8.4904     0.9233 H       
  36 H36           -1.6493    -8.2933     3.3929 H       
  37 H37           -3.3575    -7.7942     3.4243 H       
  38 H38           -2.1126    -0.1995     0.0415 H       
  39 H39            1.3748     2.1444    -2.1256 H       
  40 H40            3.6776     3.0160    -2.1537 H       
  41 H41            4.8611     3.4353    -0.0355 H       
  42 H42            3.7417     2.9839     2.1107 H       
  43 H43            1.4373     2.1167     2.1388 H       
  44 H44           -3.7333    -9.2981     5.7073 H       
  45 H45           -2.5480   -10.5802     6.0527 H       
  46 H46           -2.0490    -9.1243     5.1584 H       
  47 H47           -3.2258   -12.2176     2.0072 H       
  48 H48           -4.5022   -13.2800     2.6479 H       
  49 H49           -4.8693   -11.5822     2.2595 H       
  50 H50           -2.3988   -12.5209     5.6241 H       
  51 H51           -3.0595   -13.8282     4.6127 H       
  52 H52           -1.7832   -12.7658     3.9720 H       
  53 H53           -5.7335   -11.2385     4.5784 H       
  54 H54           -5.3663   -12.9363     4.9668 H       
  55 H55           -4.7057   -11.6290     5.9782 H       
@<TRIPOS>BOND
   1    1    2 1
   2    1   15 1
   3    1   28 1
   4    1   29 1
   5    2   13 2
   6    2   14 am
   7    3    4 2
   8    3    7 1
   9    3   14 1
  10    4    5 1
  11    5    6 2
  12    6    7 1
  13    6    8 1
  14    8    9 1
  15    8   30 1
  16    8   31 1
  17    9   10 1
  18    9   32 1
  19    9   33 1
  20   10   11 1
  21   10   34 1
  22   10   35 1
  23   11   12 1
  24   11   36 1
  25   11   37 1
  26   12   21 2
  27   12   22 am
  28   14   38 1
  29   15   16 ar
  30   15   20 ar
  31   16   17 ar
  32   16   39 1
  33   17   18 ar
  34   17   40 1
  35   18   19 ar
  36   18   41 1
  37   19   20 ar
  38   19   42 1
  39   20   43 1
  40   22   23 1
  41   22   24 1
  42   23   44 1
  43   23   45 1
  44   23   46 1
  45   24   25 1
  46   24   26 1
  47   24   27 1
  48   25   47 1
  49   25   48 1
  50   25   49 1
  51   26   50 1
  52   26   51 1
  53   26   52 1
  54   27   53 1
  55   27   54 1
  56   27   55 1

#	End of record

