#	Name: ASD00430001
#	Creating user name:	WinNT
#	Creation time:	15. 06. 2019 18:35

#	Modifying user name:	WinNT
#	Modification time:	15. 06. 2019 18:35

#	Program:	/corina/corina34_cracker 3.40 0067  02.08.2006

@<TRIPOS>MOLECULE
ASD00430001
  81   83    0    0    0
SMALL
NO_CHARGES


@<TRIPOS>ATOM
   1 C1            -0.7097     0.9876    -0.3096 C.3     
   2 C2            -0.4751    -0.5134    -0.1280 C.3     
   3 C3             1.1038     2.2863     0.7737 C.2     
   4 C4             0.6313     1.6914    -0.5280 C.3     
   5 C5             3.3653     1.5647     3.3642 C.3     
   6 C6             2.8081     2.6792     2.4768 C.3     
   7 C7             2.3347     2.0886     1.1746 C.2     
   8 C8            -1.8132    -1.2116     0.1234 C.3     
   9 C9            -1.5782    -2.4884     0.9331 C.3     
  10 C10           -1.7797    -2.1932     2.4209 C.3     
  11 C11           -0.5416    -2.6393     3.2012 C.3     
  12 O12            0.0020    -1.5094     3.9337 O.3     
  13 C13            0.8938    -1.7816     4.8994 C.2     
  14 O14           -1.5516     1.2042    -1.4438 O.3     
  15 O15            1.5946     0.7459    -0.9972 O.3     
  16 C16           -2.9472     1.2206    -1.1372 C.3     
  17 C17            2.5980     1.3100    -1.8441 C.3     
  18 C18            0.4960    -3.1617     2.2412 C.ar    
  19 C19            0.5140    -4.5025     1.9053 C.ar    
  20 C20            1.4658    -4.9817     1.0248 C.ar    
  21 C21            2.3993    -4.1201     0.4798 C.ar    
  22 C22            2.3807    -2.7791     0.8150 C.ar    
  23 C23            1.4262    -2.2991     1.6922 C.ar    
  24 O24            1.2109    -2.9257     5.1238 O.2     
  25 C25            3.9055     3.7091     2.2010 C.3     
  26 C26            1.4996    -0.6603     5.7031 C.3     
  27 C27            2.7149    -0.0995     4.9617 C.3     
  28 C28            3.7451     0.4005     5.9758 C.3     
  29 C29            4.9267     1.0331     5.2382 C.3     
  30 C30            4.4174     2.1414     4.3136 C.3     
  31 O31            2.3040     0.9846     4.1258 O.3     
  32 C32            3.7918     3.2582     5.1515 C.3     
  33 O33            5.5937     0.0351     4.4629 O.3     
  34 O34            3.2972    -1.1265     4.1563 O.3     
  35 O35            3.1397     1.3746     6.8282 O.3     
  36 C36            3.6922     1.4181     8.1453 C.3     
  37 C37            1.9365    -1.1910     7.0701 C.3     
  38 H38           -1.1905     1.3905     0.5818 H       
  39 H39           -0.0161    -0.9211    -1.0287 H       
  40 H40            0.1859    -0.6776     0.7229 H       
  41 H41            0.4275     2.8761     1.3745 H       
  42 H42            0.5098     2.4836    -1.2668 H       
  43 H43            3.8235     0.7980     2.7387 H       
  44 H44            1.9726     3.1634     2.9823 H       
  45 H45            3.0115     1.5009     0.5717 H       
  46 H46           -2.4720    -0.5448     0.6796 H       
  47 H47           -2.2750    -1.4662    -0.8305 H       
  48 H48           -2.2851    -3.2550     0.6158 H       
  49 H49           -0.5605    -2.8416     0.7673 H       
  50 H50           -1.9318    -1.1231     2.5616 H       
  51 H51           -2.6528    -2.7353     2.7839 H       
  52 H52           -0.8181    -3.4274     3.9016 H       
  53 H53           -3.5178     1.3901    -2.0502 H       
  54 H54           -3.2347     0.2638    -0.7013 H       
  55 H55           -3.1535     2.0205    -0.4260 H       
  56 H56            3.2902     0.5286    -2.1576 H       
  57 H57            2.1263     1.7513    -2.7221 H       
  58 H58            3.1428     2.0805    -1.2985 H       
  59 H59           -0.2153    -5.1757     2.3311 H       
  60 H60            1.4803    -6.0294     0.7629 H       
  61 H61            3.1433    -4.4946    -0.2076 H       
  62 H62            3.1102    -2.1060     0.3895 H       
  63 H63            1.4117    -1.2514     1.9541 H       
  64 H64            4.7756     3.2081     1.7767 H       
  65 H65            3.5357     4.4540     1.4964 H       
  66 H66            4.1868     4.1988     3.1332 H       
  67 H67            0.7609     0.1295     5.8393 H       
  68 H68            4.0989    -0.4372     6.5768 H       
  69 H69            5.6230     1.4557     5.9626 H       
  70 H70            5.2490     2.5427     3.7344 H       
  71 H71            4.4983     3.5766     5.9181 H       
  72 H72            3.5494     4.1035     4.5074 H       
  73 H73            2.8821     2.8904     5.6260 H       
  74 H74            5.9436    -0.6999     4.9850 H       
  75 H75            2.6988    -1.4901     3.4893 H       
  76 H76            3.1792     2.1821     8.7295 H       
  77 H77            3.5650     0.4476     8.6249 H       
  78 H78            4.7539     1.6578     8.0862 H       
  79 H79            2.6751    -1.9809     6.9340 H       
  80 H80            2.3748    -0.3799     7.6515 H       
  81 H81            1.0707    -1.5902     7.5984 H       
@<TRIPOS>BOND
   1    1    2 1
   2    1    4 1
   3    1   14 1
   4    1   38 1
   5    2    8 1
   6    2   39 1
   7    2   40 1
   8    3    4 1
   9    3    7 2
  10    3   41 1
  11    4   15 1
  12    4   42 1
  13    5    6 1
  14    5   31 1
  15    5   30 1
  16    5   43 1
  17    6    7 1
  18    6   25 1
  19    6   44 1
  20    7   45 1
  21    8    9 1
  22    8   46 1
  23    8   47 1
  24    9   10 1
  25    9   48 1
  26    9   49 1
  27   10   11 1
  28   10   50 1
  29   10   51 1
  30   11   12 1
  31   11   18 1
  32   11   52 1
  33   12   13 1
  34   13   24 2
  35   13   26 1
  36   14   16 1
  37   15   17 1
  38   16   53 1
  39   16   54 1
  40   16   55 1
  41   17   56 1
  42   17   57 1
  43   17   58 1
  44   18   19 ar
  45   18   23 ar
  46   19   20 ar
  47   19   59 1
  48   20   21 ar
  49   20   60 1
  50   21   22 ar
  51   21   61 1
  52   22   23 ar
  53   22   62 1
  54   23   63 1
  55   25   64 1
  56   25   65 1
  57   25   66 1
  58   26   27 1
  59   26   37 1
  60   26   67 1
  61   27   31 1
  62   27   34 1
  63   27   28 1
  64   28   29 1
  65   28   35 1
  66   28   68 1
  67   29   30 1
  68   29   33 1
  69   29   69 1
  70   30   32 1
  71   30   70 1
  72   32   71 1
  73   32   72 1
  74   32   73 1
  75   33   74 1
  76   34   75 1
  77   35   36 1
  78   36   76 1
  79   36   77 1
  80   36   78 1
  81   37   79 1
  82   37   80 1
  83   37   81 1

#	End of record

