#	Name: ASD03092523
#	Creating user name:	WinNT
#	Creation time:	15. 06. 2019 20:32

#	Modifying user name:	WinNT
#	Modification time:	15. 06. 2019 20:32

#	Program:	/corina/corina34_cracker 3.40 0067  02.08.2006

@<TRIPOS>MOLECULE
ASD03092523
  39   41    0    0    0
SMALL
NO_CHARGES


@<TRIPOS>ATOM
   1 O1            -0.0143     1.2046     0.0087 O.3     
   2 N2             0.0021    -0.0041     0.0020 N.2     
   3 C3             1.2198    -0.4741    -0.0121 C.2     
   4 C4             2.0841     0.6507    -0.0143 C.2     
   5 C5             1.2305     1.7180    -0.0005 C.2     
   6 C6             1.5992     3.1466     0.0037 C.2     
   7 O7             2.7705     3.4722    -0.0062 O.2     
   8 N8             0.6374     4.0907     0.0184 N.am    
   9 C9             1.0035     5.5092     0.0226 C.3     
  10 C10            1.2383     5.9795    -1.4143 C.3     
  11 N11           -2.9765     8.6713     2.4490 N.pl3   
  12 C12           -2.1884     9.5367     3.1578 C.2     
  13 C13           -0.8935     9.2453     2.9571 C.2     
  14 C14           -0.8487     8.0997     2.0452 C.ar    
  15 C15            0.1842     7.3533     1.4745 C.ar    
  16 C16           -0.1118     6.3140     0.6386 C.ar    
  17 C17           -1.4319     5.9936     0.3518 C.ar    
  18 C18           -2.4662     6.7169     0.9035 C.ar    
  19 C19           -2.1879     7.7794     1.7575 C.ar    
  20 C20           -2.6986    10.6520     4.0335 C.3     
  21 O21            1.5866    -1.7809    -0.0227 O.3     
  22 C22            0.5360    -2.7496    -0.0184 C.3     
  23 H23            3.1640     0.6613    -0.0241 H       
  24 H24           -0.2971     3.8309     0.0263 H       
  25 H25            1.9152     5.6475     0.6037 H       
  26 H26            2.0450     5.3974    -1.8599 H       
  27 H27            0.3266     5.8412    -1.9955 H       
  28 H28            1.5106     7.0349    -1.4112 H       
  29 H29           -3.9464     8.6820     2.4386 H       
  30 H30           -0.0455     9.7582     3.3864 H       
  31 H31            1.2135     7.5973     1.6923 H       
  32 H32           -1.6500     5.1692    -0.3109 H       
  33 H33           -3.4898     6.4601     0.6740 H       
  34 H34           -2.8410    10.2808     5.0485 H       
  35 H35           -1.9746    11.4668     4.0429 H       
  36 H36           -3.6491    11.0150     3.6427 H       
  37 H37           -0.0713    -2.6230     0.8779 H       
  38 H38           -0.0875    -2.6133    -0.9020 H       
  39 H39            0.9655    -3.7514    -0.0278 H       
@<TRIPOS>BOND
   1    1    2 1
   2    1    5 1
   3    2    3 2
   4    3    4 1
   5    3   21 1
   6    4    5 2
   7    4   23 1
   8    5    6 1
   9    6    7 2
  10    6    8 am
  11    8    9 1
  12    8   24 1
  13    9   10 1
  14    9   16 1
  15    9   25 1
  16   10   26 1
  17   10   27 1
  18   10   28 1
  19   11   12 1
  20   11   19 1
  21   11   29 1
  22   12   13 2
  23   12   20 1
  24   13   14 1
  25   13   30 1
  26   14   15 ar
  27   14   19 ar
  28   15   16 ar
  29   15   31 1
  30   16   17 ar
  31   17   18 ar
  32   17   32 1
  33   18   19 ar
  34   18   33 1
  35   20   34 1
  36   20   35 1
  37   20   36 1
  38   21   22 1
  39   22   37 1
  40   22   38 1
  41   22   39 1

#	End of record

