#	Name: ASD03331215
#	Creating user name:	WinNT
#	Creation time:	15. 06. 2019 20:38

#	Modifying user name:	WinNT
#	Modification time:	15. 06. 2019 20:38

#	Program:	/corina/corina34_cracker 3.40 0067  02.08.2006

@<TRIPOS>MOLECULE
ASD03331215
  47   49    0    0    0
SMALL
NO_CHARGES


@<TRIPOS>ATOM
   1 N1            -0.0472     1.4518     0.2744 N.am    
   2 C2            -0.0347     0.0067     0.5483 C.3     
   3 C3             0.7377    -0.6948    -0.5740 C.3     
   4 N4             2.0635    -0.0772    -0.7118 N.3     
   5 C5             1.9558     1.3326    -1.1103 C.3     
   6 C6             1.2333     2.1172    -0.0101 C.3     
   7 C7            -1.2020     2.1466     0.2784 C.2     
   8 O8            -2.2608     1.5653     0.4174 O.2     
   9 N9            -1.1831     3.4859     0.1284 N.am    
  10 C10           -2.3870     4.1974     0.0328 C.ar    
  11 C11           -2.4039     5.5734     0.2485 C.ar    
  12 C12           -3.5966     6.2716     0.1522 C.ar    
  13 C13           -4.7665     5.6028    -0.1568 C.ar    
  14 C14           -4.7504     4.2369    -0.3710 C.ar    
  15 C15           -3.5637     3.5341    -0.2824 C.ar    
  16 C16            2.8988    -0.8293    -1.6576 C.3     
  17 C17            4.1474    -0.0420    -1.9612 C.ar    
  18 C18            5.2778    -0.2130    -1.1845 C.ar    
  19 C19            6.4236     0.5091    -1.4618 C.ar    
  20 C20            6.4392     1.4027    -2.5170 C.ar    
  21 C21            5.3072     1.5737    -3.2953 C.ar    
  22 C22            4.1634     0.8469    -3.0199 C.ar    
  23 Br23           5.3269     2.7958    -4.7382 Br      
  24 Br24           8.0061     2.3912    -2.8964 Br      
  25 C25           -1.3455     7.6404     0.7611 C.3     
  26 O26           -1.2526     6.2297     0.5532 O.3     
  27 H27            0.4562    -0.1807     1.5033 H       
  28 H28           -1.0574    -0.3689     0.5792 H       
  29 H29            0.8521    -1.7513    -0.3315 H       
  30 H30            0.1901    -0.5934    -1.5109 H       
  31 H31            2.9535     1.7464    -1.2569 H       
  32 H32            1.3911     1.4057    -2.0398 H       
  33 H33            1.0488     3.1368    -0.3483 H       
  34 H34            1.8461     2.1326     0.8913 H       
  35 H35           -0.3364     3.9574     0.0865 H       
  36 H36           -3.6126     7.3386     0.3190 H       
  37 H37           -5.6955     6.1487    -0.2307 H       
  38 H38           -5.6667     3.7186    -0.6121 H       
  39 H39           -3.5533     2.4679    -0.4543 H       
  40 H40            3.1720    -1.7885    -1.2179 H       
  41 H41            2.3422    -0.9976    -2.5796 H       
  42 H42            5.2659    -0.9108    -0.3603 H       
  43 H43            7.3064     0.3756    -0.8542 H       
  44 H44            3.2799     0.9799    -3.6268 H       
  45 H45           -0.3586     8.0388     0.9963 H       
  46 H46           -1.7237     8.1168    -0.1434 H       
  47 H47           -2.0253     7.8416     1.5891 H       
@<TRIPOS>BOND
   1    1    2 1
   2    1    6 1
   3    1    7 am
   4    2    3 1
   5    2   27 1
   6    2   28 1
   7    3    4 1
   8    3   29 1
   9    3   30 1
  10    4    5 1
  11    4   16 1
  12    5    6 1
  13    5   31 1
  14    5   32 1
  15    6   33 1
  16    6   34 1
  17    7    8 2
  18    7    9 am
  19    9   10 1
  20    9   35 1
  21   10   11 ar
  22   10   15 ar
  23   11   12 ar
  24   11   26 1
  25   12   13 ar
  26   12   36 1
  27   13   14 ar
  28   13   37 1
  29   14   15 ar
  30   14   38 1
  31   15   39 1
  32   16   17 1
  33   16   40 1
  34   16   41 1
  35   17   18 ar
  36   17   22 ar
  37   18   19 ar
  38   18   42 1
  39   19   20 ar
  40   19   43 1
  41   20   21 ar
  42   20   24 1
  43   21   22 ar
  44   21   23 1
  45   22   44 1
  46   25   26 1
  47   25   45 1
  48   25   46 1
  49   25   47 1

#	End of record

