#	Name: ASD03331393
#	Creating user name:	WinNT
#	Creation time:	15. 06. 2019 20:39

#	Modifying user name:	WinNT
#	Modification time:	15. 06. 2019 20:39

#	Program:	/corina/corina34_cracker 3.40 0067  02.08.2006

@<TRIPOS>MOLECULE
ASD03331393
  61   64    0    0    0
SMALL
NO_CHARGES


@<TRIPOS>ATOM
   1 O1             0.2316    -0.4320     0.9469 O.3     
   2 C2             0.2353    -1.7806     0.4715 C.3     
   3 C3             0.6837    -1.8090    -0.9972 C.3     
   4 C4             1.9271    -0.9623    -1.1141 C.2     
   5 C5             2.3118    -0.0833    -0.1562 C.2     
   6 C6             1.5361     0.1388     1.1180 C.3     
   7 N7             2.8361    -0.9125    -2.1155 N.am    
   8 N8             3.8156     0.0285    -1.7603 N.2     
   9 C9             3.5009     0.5275    -0.5816 C.2     
  10 C10            2.8067    -1.6377    -3.2511 C.2     
  11 O11            1.9021    -2.4251    -3.4458 O.2     
  12 N12            3.7806    -1.4893    -4.1708 N.am    
  13 C13            3.7487    -2.2776    -5.4053 C.3     
  14 C14            2.8679    -1.5719    -6.4383 C.3     
  15 C15            5.1473    -2.4168    -5.9488 C.2     
  16 C16            4.2690     1.5549     0.1641 C.ar    
  17 C17            5.6603     1.5748     0.0933 C.ar    
  18 C18            6.3713     2.5340     0.7891 C.ar    
  19 C19            5.7007     3.4752     1.5567 C.ar    
  20 C20            4.3177     3.4574     1.6285 C.ar    
  21 C21            3.6003     2.5061     0.9324 C.ar    
  22 F22            6.3987     4.4114     2.2362 F       
  23 F23            7.7205     2.5548     0.7222 F       
  24 C24            3.3607    -0.1366    -6.6333 C.3     
  25 C25            2.9425    -2.3221    -7.7697 C.3     
  26 C26            1.4198    -1.5513    -5.9450 C.3     
  27 N27            5.4637    -3.4649    -6.7348 N.am    
  28 O28            5.9883    -1.5856    -5.6789 O.2     
  29 C29            6.8485    -3.6624    -7.1700 C.3     
  30 C30            6.9330    -4.8954    -8.0324 C.2     
  31 O31            7.1682    -6.1482    -7.6075 O.3     
  32 C32            7.1585    -6.9273    -8.7022 C.2     
  33 N33            6.9263    -6.1575    -9.7271 N.2     
  34 N34            6.7859    -4.9431    -9.3259 N.2     
  35 C35            7.3763    -8.4181    -8.7377 C.3     
  36 H36            0.9233    -2.3753     1.0724 H       
  37 H37           -0.7689    -2.1967     0.5523 H       
  38 H38            0.9050    -2.8336    -1.2961 H       
  39 H39           -0.1028    -1.4000    -1.6315 H       
  40 H40            1.4481     1.2074     1.3143 H       
  41 H41            2.0456    -0.3486     1.9492 H       
  42 H42            4.5028    -0.8607    -4.0154 H       
  43 H43            3.3407    -3.2662    -5.1946 H       
  44 H44            6.1822     0.8418    -0.5040 H       
  45 H45            3.7995     4.1919     2.2272 H       
  46 H46            2.5219     2.4936     0.9896 H       
  47 H47            4.3924    -0.1513    -6.9848 H       
  48 H48            2.7333     0.3661    -7.3693 H       
  49 H49            3.3076     0.3978    -5.6848 H       
  50 H50            2.5570    -3.3332    -7.6391 H       
  51 H51            2.3444    -1.7987    -8.5156 H       
  52 H52            3.9793    -2.3687    -8.1029 H       
  53 H53            1.3666    -1.0169    -4.9965 H       
  54 H54            0.7923    -1.0486    -6.6809 H       
  55 H55            1.0687    -2.5738    -5.8060 H       
  56 H56            4.7744    -4.0884    -7.0123 H       
  57 H57            7.1765    -2.7951    -7.7430 H       
  58 H58            7.4897    -3.7849    -6.2971 H       
  59 H59            6.4188    -8.9278    -8.6304 H       
  60 H60            7.8314    -8.6962    -9.6883 H       
  61 H61            8.0361    -8.7085    -7.9202 H       
@<TRIPOS>BOND
   1    1    2 1
   2    1    6 1
   3    2    3 1
   4    2   36 1
   5    2   37 1
   6    3    4 1
   7    3   38 1
   8    3   39 1
   9    4    5 2
  10    4    7 1
  11    5    6 1
  12    5    9 1
  13    6   40 1
  14    6   41 1
  15    7    8 1
  16    7   10 am
  17    8    9 2
  18    9   16 1
  19   10   11 2
  20   10   12 am
  21   12   13 1
  22   12   42 1
  23   13   14 1
  24   13   15 1
  25   13   43 1
  26   14   24 1
  27   14   25 1
  28   14   26 1
  29   15   27 am
  30   15   28 2
  31   16   17 ar
  32   16   21 ar
  33   17   18 ar
  34   17   44 1
  35   18   19 ar
  36   18   23 1
  37   19   20 ar
  38   19   22 1
  39   20   21 ar
  40   20   45 1
  41   21   46 1
  42   24   47 1
  43   24   48 1
  44   24   49 1
  45   25   50 1
  46   25   51 1
  47   25   52 1
  48   26   53 1
  49   26   54 1
  50   26   55 1
  51   27   29 1
  52   27   56 1
  53   29   30 1
  54   29   57 1
  55   29   58 1
  56   30   31 1
  57   30   34 2
  58   31   32 1
  59   32   33 2
  60   32   35 1
  61   33   34 1
  62   35   59 1
  63   35   60 1
  64   35   61 1

#	End of record

