#	Name: ASD01916632
#	Creating user name:	WinNT
#	Creation time:	15. 06. 2019 20:07

#	Modifying user name:	WinNT
#	Modification time:	15. 06. 2019 20:07

#	Program:	/corina/corina34_cracker 3.40 0067  02.08.2006

@<TRIPOS>MOLECULE
ASD01916632
  20   20    0    0    0
SMALL
NO_CHARGES


@<TRIPOS>ATOM
   1 C1            -0.0187     1.5258     0.0104 C.3     
   2 C2             0.0021    -0.0041     0.0020 C.3     
   3 C3            -1.3789    -0.5136     0.0125 C.1     
   4 C4            -2.4803    -0.9199     0.0208 C.1     
   5 O5             1.3220     2.0204     0.0003 O.3     
   6 C6            -3.8237    -1.4156     0.0310 C.ar    
   7 C7            -4.0540    -2.7918     0.0258 C.ar    
   8 C8            -5.3576    -3.2549     0.0357 C.ar    
   9 C9            -6.3905    -2.3276     0.0506 C.ar    
  10 C10           -6.0909    -0.9778     0.0550 C.ar    
  11 N11           -4.8409    -0.5620     0.0507 N.ar    
  12 H12           -0.5459     1.8868    -0.8726 H       
  13 H13           -0.5289     1.8773     0.9072 H       
  14 H14            0.5123    -0.3556    -0.8948 H       
  15 H15            0.5293    -0.3651     0.8851 H       
  16 H16            1.3852     2.9853     0.0049 H       
  17 H17           -3.2264    -3.4856     0.0138 H       
  18 H18           -5.5671    -4.3144     0.0317 H       
  19 H19           -7.4189    -2.6575     0.0583 H       
  20 H20           -6.8928    -0.2544     0.0661 H       
@<TRIPOS>BOND
   1    1    2 1
   2    1    5 1
   3    1   12 1
   4    1   13 1
   5    2    3 1
   6    2   14 1
   7    2   15 1
   8    3    4 3
   9    4    6 1
  10    5   16 1
  11    6    7 ar
  12    6   11 ar
  13    7    8 ar
  14    7   17 1
  15    8    9 ar
  16    8   18 1
  17    9   10 ar
  18    9   19 1
  19   10   11 ar
  20   10   20 1

#	End of record

