#	Name: ASD05313073
#	Creating user name:	WinNT
#	Creation time:	15. 06. 2019 20:58

#	Modifying user name:	WinNT
#	Modification time:	15. 06. 2019 20:58

#	Program:	/corina/corina34_cracker 3.40 0067  02.08.2006

@<TRIPOS>MOLECULE
ASD05313073
  39   42    0    0    0
SMALL
NO_CHARGES


@<TRIPOS>ATOM
   1 C1            -0.2484     1.0328     1.0444 C.2     
   2 C2            -0.0382    -0.4436     0.8074 C.3     
   3 N3             0.7670     1.9406     1.1001 N.pl3   
   4 N4             1.3693    -0.6173     0.4011 N.am    
   5 C5             2.4013     0.1278     1.1379 C.3     
   6 C6             2.1855     1.6316     0.9298 C.3     
   7 N7            -1.1182     2.9285     1.4062 N.2     
   8 N8            -1.3609     1.6746     1.2334 N.2     
   9 C9             0.1794     3.1456     1.3354 C.2     
  10 C10            0.8658     4.4474     1.4864 C.ar    
  11 C11            2.1736     4.6072     1.0275 C.ar    
  12 C12            2.8082     5.8239     1.1713 C.ar    
  13 C13            2.1504     6.8840     1.7691 C.ar    
  14 C14            0.8536     6.7320     2.2262 C.ar    
  15 C15            0.2059     5.5221     2.0832 C.ar    
  16 C16            1.7004    -1.4364    -0.6167 C.2     
  17 O17            2.8515    -1.4905    -1.0035 O.2     
  18 C18            0.6640    -2.2687    -1.2624 C.ar    
  19 C19            0.5867    -2.3374    -2.6557 C.ar    
  20 C20           -0.3856    -3.1181    -3.2521 C.ar    
  21 C21           -1.2803    -3.8294    -2.4715 C.ar    
  22 C22           -1.2081    -3.7642    -1.0913 C.ar    
  23 C23           -0.2385    -2.9943    -0.4830 C.ar    
  24 Cl24          -0.4851    -3.2062    -4.9830 Cl      
  25 Cl25           1.7081    -1.4444    -3.6349 Cl      
  26 H26           -0.2319    -0.9991     1.7250 H       
  27 H27           -0.7001    -0.7911     0.0141 H       
  28 H28            2.3306    -0.1063     2.2001 H       
  29 H29            3.3872    -0.1531     0.7676 H       
  30 H30            2.5005     1.9089    -0.0762 H       
  31 H31            2.7701     2.1884     1.6621 H       
  32 H32            2.6882     3.7802     0.5609 H       
  33 H33            3.8207     5.9488     0.8168 H       
  34 H34            2.6516     7.8343     1.8797 H       
  35 H35            0.3456     7.5633     2.6924 H       
  36 H36           -0.8081     5.4059     2.4364 H       
  37 H37           -2.0386    -4.4378    -2.9419 H       
  38 H38           -1.9097    -4.3216    -0.4885 H       
  39 H39           -0.1812    -2.9488     0.5946 H       
@<TRIPOS>BOND
   1    1    2 1
   2    1    3 1
   3    1    8 2
   4    2    4 1
   5    2   26 1
   6    2   27 1
   7    3    6 1
   8    3    9 1
   9    4    5 1
  10    4   16 am
  11    5    6 1
  12    5   28 1
  13    5   29 1
  14    6   30 1
  15    6   31 1
  16    7    8 1
  17    7    9 2
  18    9   10 1
  19   10   11 ar
  20   10   15 ar
  21   11   12 ar
  22   11   32 1
  23   12   13 ar
  24   12   33 1
  25   13   14 ar
  26   13   34 1
  27   14   15 ar
  28   14   35 1
  29   15   36 1
  30   16   17 2
  31   16   18 1
  32   18   19 ar
  33   18   23 ar
  34   19   20 ar
  35   19   25 1
  36   20   21 ar
  37   20   24 1
  38   21   22 ar
  39   21   37 1
  40   22   23 ar
  41   22   38 1
  42   23   39 1

#	End of record

