#	Name: ASD00071011
#	Creating user name:	WinNT
#	Creation time:	15. 06. 2019 18:30

#	Modifying user name:	WinNT
#	Modification time:	15. 06. 2019 18:30

#	Program:	/corina/corina34_cracker 3.40 0067  02.08.2006

@<TRIPOS>MOLECULE
ASD00071011
  40   42    0    0    0
SMALL
NO_CHARGES


@<TRIPOS>ATOM
   1 N1            -0.1100     1.1204     0.4100 N.ar    
   2 C2             0.0183    -0.1615     0.1345 C.ar    
   3 C3             1.2536    -0.7116    -0.2356 C.ar    
   4 C4             2.3554     0.0859    -0.3166 C.ar    
   5 C5             2.2121     1.4568    -0.0211 C.ar    
   6 C6             3.3079     2.3316    -0.0854 C.ar    
   7 C7             3.1402     3.6502     0.2056 C.ar    
   8 C8             1.8861     4.1488     0.5700 C.ar    
   9 C9             0.7917     3.3167     0.6424 C.ar    
  10 C10            0.9369     1.9522     0.3473 C.ar    
  11 N11           -1.0942    -0.9859     0.2127 N.pl3   
  12 C12            1.3628    -2.1829    -0.5427 C.3     
  13 C13            0.9985    -2.4233    -1.9851 C.ar    
  14 C14            1.9395    -2.2139    -2.9831 C.ar    
  15 C15            1.6011    -2.4360    -4.3098 C.ar    
  16 C16            0.3285    -2.8652    -4.6344 C.ar    
  17 C17           -0.6073    -3.0727    -3.6383 C.ar    
  18 C18           -0.2706    -2.8578    -2.3143 C.ar    
  19 O19            3.1904    -1.7913    -2.6613 O.3     
  20 C20            4.1070    -1.5966    -3.7402 C.3     
  21 O21            1.7459     5.4692     0.8565 O.3     
  22 C22            2.9181     6.2811     0.7641 C.3     
  23 H23            3.3145    -0.3221    -0.5998 H       
  24 H24            4.2822     1.9588    -0.3649 H       
  25 H25            3.9862     4.3196     0.1548 H       
  26 H26           -0.1730     3.7116     0.9249 H       
  27 H27           -1.9718    -0.6027     0.3672 H       
  28 H28           -0.9946    -1.9456     0.1129 H       
  29 H29            2.3854    -2.5161    -0.3658 H       
  30 H30            0.6826    -2.7400     0.1015 H       
  31 H31            2.3316    -2.2733    -5.0885 H       
  32 H32            0.0645    -3.0383    -5.6673 H       
  33 H33           -1.6018    -3.4075    -3.8941 H       
  34 H34           -1.0020    -3.0253    -1.5375 H       
  35 H35            4.2438    -2.5366    -4.2748 H       
  36 H36            3.7104    -0.8449    -4.4227 H       
  37 H37            5.0658    -1.2598    -3.3461 H       
  38 H38            3.6730     5.9097     1.4572 H       
  39 H39            3.3081     6.2419    -0.2530 H       
  40 H40            2.6676     7.3112     1.0176 H       
@<TRIPOS>BOND
   1    1    2 ar
   2    1   10 ar
   3    2    3 ar
   4    2   11 1
   5    3    4 ar
   6    3   12 1
   7    4    5 ar
   8    4   23 1
   9    5    6 ar
  10    5   10 ar
  11    6    7 ar
  12    6   24 1
  13    7    8 ar
  14    7   25 1
  15    8    9 ar
  16    8   21 1
  17    9   10 ar
  18    9   26 1
  19   11   27 1
  20   11   28 1
  21   12   13 1
  22   12   29 1
  23   12   30 1
  24   13   14 ar
  25   13   18 ar
  26   14   15 ar
  27   14   19 1
  28   15   16 ar
  29   15   31 1
  30   16   17 ar
  31   16   32 1
  32   17   18 ar
  33   17   33 1
  34   18   34 1
  35   19   20 1
  36   20   35 1
  37   20   36 1
  38   20   37 1
  39   21   22 1
  40   22   38 1
  41   22   39 1
  42   22   40 1

#	End of record

