#	Name: ASD01910335
#	Creating user name:	WinNT
#	Creation time:	15. 06. 2019 19:55

#	Modifying user name:	WinNT
#	Modification time:	15. 06. 2019 19:55

#	Program:	/corina/corina34_cracker 3.40 0067  02.08.2006

@<TRIPOS>MOLECULE
ASD01910335
  45   47    0    0    0
SMALL
NO_CHARGES


@<TRIPOS>ATOM
   1 C1             0.0457     1.4280    -0.1287 C.ar    
   2 C2             0.0542    -0.0039    -0.1126 C.1     
   3 C3             0.0611    -1.1778    -0.0994 C.1     
   4 C4             0.0696    -2.6097    -0.0833 C.ar    
   5 C5            -1.0084    -3.3099     0.4698 C.ar    
   6 C6            -0.9996    -4.6755     0.4849 C.ar    
   7 C7             0.0860    -5.3739    -0.0521 C.ar    
   8 C8             1.1633    -4.6750    -0.6048 C.ar    
   9 C9             1.1532    -3.3094    -0.6258 C.ar    
  10 C10            0.0949    -6.8500    -0.0350 C.2     
  11 O11           -0.8644    -7.4687    -0.4536 O.2     
  12 N12            1.1666    -7.5119     0.4446 N.am    
  13 C13            2.3658    -6.7814     0.8769 C.3     
  14 C14            2.7111    -7.2036     2.3084 C.3     
  15 C15            2.8474    -8.7267     2.3679 C.3     
  16 C16            1.5164    -9.3753     1.9808 C.3     
  17 C17            1.1554    -8.9773     0.5508 C.3     
  18 O18            3.8653    -9.1495     1.4584 O.3     
  19 C19            3.2262    -9.1495     3.7887 C.3     
  20 C20            1.1207     2.1301    -0.6803 C.ar    
  21 C21            1.1069     3.5094    -0.6929 C.ar    
  22 C22            0.0324     4.1992    -0.1608 C.ar    
  23 C23           -1.0380     3.5107     0.3889 C.ar    
  24 C24           -1.0403     2.1295     0.4020 C.ar    
  25 F25           -2.0832     4.1917     0.9074 F       
  26 H26           -1.8469    -2.7705     0.8850 H       
  27 H27           -1.8313    -5.2160     0.9121 H       
  28 H28            2.0017    -5.2151    -1.0192 H       
  29 H29            1.9853    -2.7696    -1.0532 H       
  30 H30            3.1979    -7.0205     0.2146 H       
  31 H31            2.1704    -5.7094     0.8491 H       
  32 H32            3.6524    -6.7421     2.6068 H       
  33 H33            1.9179    -6.8827     2.9837 H       
  34 H34            1.6074   -10.4595     2.0460 H       
  35 H35            0.7344    -9.0339     2.6591 H       
  36 H36            0.1628    -9.3551     0.3058 H       
  37 H37            1.8881    -9.3939    -0.1404 H       
  38 H38            4.0066   -10.1060     1.4432 H       
  39 H39            2.4503    -8.8266     4.4829 H       
  40 H40            3.3234   -10.2343     3.8313 H       
  41 H41            4.1748    -8.6886     4.0642 H       
  42 H42            1.9611     1.5938    -1.0958 H       
  43 H43            1.9375     4.0524    -1.1191 H       
  44 H44            0.0275     5.2791    -0.1732 H       
  45 H45           -1.8744     1.5934     0.8300 H       
@<TRIPOS>BOND
   1    1    2 1
   2    1   20 ar
   3    1   24 ar
   4    2    3 3
   5    3    4 1
   6    4    5 ar
   7    4    9 ar
   8    5    6 ar
   9    5   26 1
  10    6    7 ar
  11    6   27 1
  12    7    8 ar
  13    7   10 1
  14    8    9 ar
  15    8   28 1
  16    9   29 1
  17   10   11 2
  18   10   12 am
  19   12   13 1
  20   12   17 1
  21   13   14 1
  22   13   30 1
  23   13   31 1
  24   14   15 1
  25   14   32 1
  26   14   33 1
  27   15   16 1
  28   15   18 1
  29   15   19 1
  30   16   17 1
  31   16   34 1
  32   16   35 1
  33   17   36 1
  34   17   37 1
  35   18   38 1
  36   19   39 1
  37   19   40 1
  38   19   41 1
  39   20   21 ar
  40   20   42 1
  41   21   22 ar
  42   21   43 1
  43   22   23 ar
  44   22   44 1
  45   23   24 ar
  46   23   25 1
  47   24   45 1

#	End of record

