#	Name: ASD03330980
#	Creating user name:	WinNT
#	Creation time:	15. 06. 2019 20:38

#	Modifying user name:	WinNT
#	Modification time:	15. 06. 2019 20:38

#	Program:	/corina/corina34_cracker 3.40 0067  02.08.2006

@<TRIPOS>MOLECULE
ASD03330980
  64   66    0    0    0
SMALL
NO_CHARGES


@<TRIPOS>ATOM
   1 N1            -0.0164     1.3554     0.0653 N.pl3   
   2 C2             0.0029    -0.0038     0.0363 C.2     
   3 C3             1.2395    -0.8639     0.0226 C.3     
   4 N4             2.1701    -0.3869     1.0575 N.3     
   5 C5             3.0625     0.6480     0.5319 C.3     
   6 C6             2.3511     1.5031    -0.5128 C.3     
   7 C7             1.1625     2.2238     0.1291 C.3     
   8 C8            -1.3235     1.7462     0.0361 C.2     
   9 N9            -2.0806     0.6745     0.0088 N.2     
  10 C10           -1.2924    -0.4229     0.0109 C.2     
  11 C11           -1.7523    -1.8227    -0.0109 C.2     
  12 O12           -0.9416    -2.7292    -0.0069 O.2     
  13 N13           -3.0714    -2.0983    -0.0352 N.am    
  14 C14            2.9365    -1.5015     1.6305 C.3     
  15 C15           -4.9196    -3.5600    -0.6900 C.3     
  16 C16           -3.5286    -3.4900    -0.0569 C.3     
  17 C17           -3.5918    -4.0284     1.3739 C.3     
  18 C18           -4.5685    -3.1834     2.1941 C.3     
  19 S19           -6.1273    -3.1865    -3.0810 S.o2    
  20 O20           -5.7442    -2.4624    -4.2421 O.2     
  21 O21           -6.2798    -4.5989    -3.1155 O.2     
  22 N22           -4.8851    -2.9358    -2.0150 N.am    
  23 C23           -7.5645    -2.4102    -2.2920 C.3     
  24 C24           -4.0692    -5.4818     1.3513 C.3     
  25 C25           -2.2007    -3.9584     2.0071 C.3     
  26 C26           -1.8064     3.1442     0.0359 C.ar    
  27 C27           -2.7906     3.5466    -0.8709 C.ar    
  28 C28           -3.2374     4.8545    -0.8650 C.ar    
  29 C29           -2.7125     5.7633     0.0355 C.ar    
  30 C30           -1.7368     5.3704     0.9360 C.ar    
  31 C31           -1.2856     4.0653     0.9447 C.ar    
  32 F32           -3.3037     2.6596    -1.7513 F       
  33 Cl33          -1.0839     6.5197     2.0613 Cl      
  34 H34            0.9658    -1.8988     0.2277 H       
  35 H35            1.7175    -0.7992    -0.9549 H       
  36 H36            3.3934     1.2857     1.3517 H       
  37 H37            3.9312     0.1737     0.0753 H       
  38 H38            3.0477     2.2393    -0.9139 H       
  39 H39            1.9944     0.8651    -1.3214 H       
  40 H40            0.9629     3.1495    -0.4106 H       
  41 H41            1.3926     2.4500     1.1702 H       
  42 H42           -3.7180    -1.3753    -0.0384 H       
  43 H43            3.4549    -2.0339     0.8330 H       
  44 H44            3.6655    -1.1135     2.3419 H       
  45 H45            2.2578    -2.1843     2.1416 H       
  46 H46           -5.2225    -4.6026    -0.7874 H       
  47 H47           -5.6335    -3.0318    -0.0580 H       
  48 H48           -2.8327    -4.0920    -0.6412 H       
  49 H49           -5.5596    -3.2332     1.7430 H       
  50 H50           -4.6136    -3.5669     3.2134 H       
  51 H51           -4.2284    -2.1479     2.2102 H       
  52 H52           -4.1346    -2.3757    -2.2678 H       
  53 H53           -8.4386    -2.5286    -2.9323 H       
  54 H54           -7.7519    -2.8862    -1.3296 H       
  55 H55           -7.3665    -1.3491    -2.1401 H       
  56 H56           -3.3733    -6.0838     0.7669 H       
  57 H57           -4.1143    -5.8653     2.3706 H       
  58 H58           -5.0603    -5.5317     0.9002 H       
  59 H59           -1.8605    -2.9229     2.0232 H       
  60 H60           -2.2457    -4.3419     3.0264 H       
  61 H61           -1.5048    -4.5604     1.4227 H       
  62 H62           -3.9977     5.1675    -1.5653 H       
  63 H63           -3.0649     6.7842     0.0362 H       
  64 H64           -0.5280     3.7594     1.6510 H       
@<TRIPOS>BOND
   1    1    2 1
   2    1    7 1
   3    1    8 1
   4    2    3 1
   5    2   10 2
   6    3    4 1
   7    3   34 1
   8    3   35 1
   9    4    5 1
  10    4   14 1
  11    5    6 1
  12    5   36 1
  13    5   37 1
  14    6    7 1
  15    6   38 1
  16    6   39 1
  17    7   40 1
  18    7   41 1
  19    8    9 2
  20    8   26 1
  21    9   10 1
  22   10   11 1
  23   11   12 2
  24   11   13 am
  25   13   16 1
  26   13   42 1
  27   14   43 1
  28   14   44 1
  29   14   45 1
  30   15   22 1
  31   15   16 1
  32   15   46 1
  33   15   47 1
  34   16   17 1
  35   16   48 1
  36   17   18 1
  37   17   24 1
  38   17   25 1
  39   18   49 1
  40   18   50 1
  41   18   51 1
  42   19   20 2
  43   19   21 2
  44   19   22 am
  45   19   23 1
  46   22   52 1
  47   23   53 1
  48   23   54 1
  49   23   55 1
  50   24   56 1
  51   24   57 1
  52   24   58 1
  53   25   59 1
  54   25   60 1
  55   25   61 1
  56   26   27 ar
  57   26   31 ar
  58   27   28 ar
  59   27   32 1
  60   28   29 ar
  61   28   62 1
  62   29   30 ar
  63   29   63 1
  64   30   31 ar
  65   30   33 1
  66   31   64 1

#	End of record

