#	Name: ASD00840512
#	Creating user name:	WinNT
#	Creation time:	15. 06. 2019 18:39

#	Modifying user name:	WinNT
#	Modification time:	15. 06. 2019 18:39

#	Program:	/corina/corina34_cracker 3.40 0067  02.08.2006

@<TRIPOS>MOLECULE
ASD00840512
  89   94    0    0    0
SMALL
NO_CHARGES


@<TRIPOS>ATOM
   1 F1            -0.1163    -3.1664     4.7128 F       
   2 N2            -0.0051     1.3211     0.0355 N.ar    
   3 C3             0.0089    -0.0012     0.0185 C.ar    
   4 C4             1.2116    -0.6961    -0.0015 C.ar    
   5 C5             2.3994     0.0138    -0.0035 C.ar    
   6 C6             2.3418     1.4008     0.0147 C.ar    
   7 C7             1.1108     2.0254     0.0341 C.ar    
   8 C8             1.2227    -2.2030    -0.0203 C.3     
   9 C9             0.4753    -2.7238    -1.2294 C.2     
  10 N10            2.5990    -2.7050    -0.0123 N.am    
  11 C11            3.4466    -2.3635    -1.0029 C.2     
  12 N12            4.7401    -2.7371    -0.9417 N.am    
  13 O13            3.0444    -1.7184    -1.9518 O.2     
  14 C14            5.2677    -3.4158     0.2497 C.3     
  15 C15            6.4985    -2.6518     0.7480 C.3     
  16 C16            7.5064    -2.5150    -0.3954 C.3     
  17 C17            6.8758    -1.7203    -1.5413 C.3     
  18 C18            5.6479    -2.4788    -2.0677 C.3     
  19 C19            8.7519    -1.7826     0.1079 C.3     
  20 C20            9.3850    -2.5774     1.2533 C.3     
  21 C21           10.6633    -1.8719     1.7117 C.3     
  22 N22           11.5998    -1.7722     0.5850 N.3     
  23 C23           11.0320    -0.9732    -0.5084 C.3     
  24 C24            9.7647    -1.6518    -1.0330 C.3     
  25 C25           12.8916    -1.2251     1.0210 C.3     
  26 O26            0.7560    -2.5216    -2.3919 O.2     
  27 N27           -0.5572    -3.4524    -0.7729 N.am    
  28 C28            0.4486    -2.7529     1.1557 C.ar    
  29 C29           -0.6015    -3.4896     0.6224 C.ar    
  30 C30            0.6137    -2.6426     2.5182 C.ar    
  31 C31           -0.2748    -3.2716     3.3753 C.ar    
  32 C32           -1.3271    -4.0100     2.8552 C.ar    
  33 C33           -1.4923    -4.1203     1.4879 C.ar    
  34 F34           -2.1945    -4.6241     3.6891 F       
  35 C35           -1.0282    -5.8355    -2.0665 C.ar    
  36 C36           -1.3607    -6.8801    -1.2244 C.ar    
  37 C37           -0.2111    -6.0612    -3.1585 C.ar    
  38 C38            0.2734    -7.3315    -3.4083 C.ar    
  39 C39           -0.0588    -8.3760    -2.5660 C.ar    
  40 C40           -0.8758    -8.1503    -1.4741 C.ar    
  41 H41            0.3197    -9.3685    -2.7613 H       
  42 H42           -1.9990    -6.7038    -0.3713 H       
  43 C43           13.8778    -1.2525    -0.1484 C.3     
  44 C44           12.7010     0.2175     1.4938 C.3     
  45 O45           -1.1626    -0.6857     0.0211 O.3     
  46 C46           -3.5735    -0.8519     0.0423 C.3     
  47 C47           -2.3649     0.0863     0.0426 C.3     
  48 S48           -1.6516    -4.2177    -1.7521 S.o2    
  49 O49           -2.8324    -4.3859    -0.9796 O.2     
  50 O50           -1.6275    -3.5298    -2.9953 O.2     
  51 H51            3.3496    -0.4994    -0.0185 H       
  52 H52            3.2502     1.9848     0.0141 H       
  53 H53            1.0605     3.1041     0.0480 H       
  54 H54            2.9002    -3.2831     0.7060 H       
  55 H55            4.5061    -3.4301     1.0294 H       
  56 H56            5.5504    -4.4369    -0.0065 H       
  57 H57            6.1982    -1.6610     1.0889 H       
  58 H58            6.9561    -3.1977     1.5730 H       
  59 H59            7.7875    -3.5058    -0.7523 H       
  60 H60            6.5720    -0.7382    -1.1788 H       
  61 H61            7.6020    -1.6031    -2.3456 H       
  62 H62            5.9643    -3.4221    -2.5128 H       
  63 H63            5.1371    -1.8726    -2.8158 H       
  64 H64            8.4724    -0.7909     0.4636 H       
  65 H65            8.6839    -2.6373     2.0857 H       
  66 H66            9.6278    -3.5824     0.9082 H       
  67 H67           10.4179    -0.8719     2.0695 H       
  68 H68           11.1243    -2.4429     2.5177 H       
  69 H69           10.7849     0.0226    -0.1401 H       
  70 H70           11.7607    -0.8914    -1.3149 H       
  71 H71           10.0134    -2.6423    -1.4141 H       
  72 H72            9.3348    -1.0505    -1.8341 H       
  73 H73           13.2832    -1.8274     1.8407 H       
  74 H74            1.4351    -2.0667     2.9184 H       
  75 H75           -2.3142    -4.6966     1.0893 H       
  76 H76            0.0485    -5.2451    -3.8165 H       
  77 H77            0.9112    -7.5080    -4.2619 H       
  78 H78           -1.1357    -8.9665    -0.8162 H       
  79 H79           13.4862    -0.6502    -0.9682 H       
  80 H80           14.8363    -0.8466     0.1751 H       
  81 H81           14.0136    -2.2802    -0.4852 H       
  82 H82           12.3094     0.8198     0.6740 H       
  83 H83           11.9984     0.2370     2.3269 H       
  84 H84           13.6595     0.6234     1.8173 H       
  85 H85           -4.4906    -0.2631     0.0587 H       
  86 H86           -3.5540    -1.4692    -0.8558 H       
  87 H87           -3.5368    -1.4919     0.9239 H       
  88 H88           -2.3844     0.7036     0.9407 H       
  89 H89           -2.4016     0.7263    -0.8390 H       
@<TRIPOS>BOND
   1    1   31 1
   2    2    3 ar
   3    2    7 ar
   4    3    4 ar
   5    3   45 1
   6    4    5 ar
   7    4    8 1
   8    5    6 ar
   9    5   51 1
  10    6    7 ar
  11    6   52 1
  12    7   53 1
  13    8    9 1
  14    8   10 1
  15    8   28 1
  16    9   26 2
  17    9   27 am
  18   10   11 am
  19   10   54 1
  20   11   12 am
  21   11   13 2
  22   12   14 1
  23   12   18 1
  24   14   15 1
  25   14   55 1
  26   14   56 1
  27   15   16 1
  28   15   57 1
  29   15   58 1
  30   16   17 1
  31   16   19 1
  32   16   59 1
  33   17   18 1
  34   17   60 1
  35   17   61 1
  36   18   62 1
  37   18   63 1
  38   19   20 1
  39   19   24 1
  40   19   64 1
  41   20   21 1
  42   20   65 1
  43   20   66 1
  44   21   22 1
  45   21   67 1
  46   21   68 1
  47   22   23 1
  48   22   25 1
  49   23   24 1
  50   23   69 1
  51   23   70 1
  52   24   71 1
  53   24   72 1
  54   25   43 1
  55   25   44 1
  56   25   73 1
  57   27   48 am
  58   27   29 1
  59   28   29 ar
  60   28   30 ar
  61   29   33 ar
  62   30   31 ar
  63   30   74 1
  64   31   32 ar
  65   32   33 ar
  66   32   34 1
  67   33   75 1
  68   35   36 ar
  69   35   37 ar
  70   35   48 1
  71   36   42 1
  72   36   40 ar
  73   37   38 ar
  74   37   76 1
  75   38   39 ar
  76   38   77 1
  77   39   40 ar
  78   39   41 1
  79   40   78 1
  80   43   79 1
  81   43   80 1
  82   43   81 1
  83   44   82 1
  84   44   83 1
  85   44   84 1
  86   45   47 1
  87   46   47 1
  88   46   85 1
  89   46   86 1
  90   46   87 1
  91   47   88 1
  92   47   89 1
  93   48   49 2
  94   48   50 2

#	End of record

