#	Name: ASD01708015
#	Creating user name:	WinNT
#	Creation time:	15. 06. 2019 19:22

#	Modifying user name:	WinNT
#	Modification time:	15. 06. 2019 19:22

#	Program:	/corina/corina34_cracker 3.40 0067  02.08.2006

@<TRIPOS>MOLECULE
ASD01708015
  67   71    0    0    0
SMALL
NO_CHARGES


@<TRIPOS>ATOM
   1 C1            -0.0304     1.5084    -0.0537 C.3     
   2 O2            -0.0885     0.2697    -0.7843 O.3     
   3 C3             1.0793     0.2789    -1.6256 C.3     
   4 C4             2.1104     1.1083    -0.8959 C.ar    
   5 C5             1.4361     1.8557     0.0597 C.ar    
   6 C6             3.4764     1.2200    -1.0249 C.ar    
   7 C7             4.1836     2.0887    -0.1907 C.ar    
   8 C8             3.4999     2.8375     0.7682 C.ar    
   9 C9             2.1299     2.7170     0.8867 C.ar    
  10 C10            5.6509     2.2141    -0.3226 C.2     
  11 O11            6.3200     1.2425    -0.6157 O.2     
  12 N12            6.2465     3.4056    -0.1179 N.am    
  13 C13            7.7129     3.5383    -0.1134 C.3     
  14 C14            5.4601     4.6237     0.1034 C.3     
  15 C15            6.0355     5.7555    -0.7116 C.ar    
  16 C16            7.2581     5.6621    -1.3408 C.ar    
  17 C17            8.1070     4.4268    -1.2920 C.3     
  18 C18            5.2861     6.9215    -0.8141 C.ar    
  19 C19            5.7535     7.9983    -1.5357 C.ar    
  20 C20            6.9961     7.9154    -2.1703 C.ar    
  21 C21            7.7419     6.7422    -2.0670 C.ar    
  22 Cl22           9.2865     6.6309    -2.8515 Cl      
  23 Cl23           4.8053     9.4475    -1.6563 Cl      
  24 C24            7.5147     9.0616    -2.9440 C.2     
  25 N25            7.2332     9.1706    -4.2575 N.am    
  26 O26            8.1956     9.9066    -2.3961 O.2     
  27 C27            7.7477    10.3075    -5.0250 C.3     
  28 C28            6.8122    11.4795    -4.8749 C.2     
  29 O29            7.0837    12.6386    -5.4949 O.3     
  30 O30            5.8178    11.3757    -4.1965 O.2     
  31 C31            7.8490     9.9218    -6.5021 C.3     
  32 C32            8.8764     8.8316    -6.6672 C.ar    
  33 C33            8.4958     7.5050    -6.5855 C.ar    
  34 C34           10.1980     9.1580    -6.9060 C.ar    
  35 C35           11.1405     8.1579    -7.0575 C.ar    
  36 C36           10.7612     6.8318    -6.9698 C.ar    
  37 C37            9.4381     6.5052    -6.7370 C.ar    
  38 S38           12.8252     8.5740    -7.3631 S.o2    
  39 C39           13.5649     8.7081    -5.7122 C.3     
  40 O40           13.3454     7.4455    -8.0524 O.2     
  41 O41           12.7636     9.8492    -7.9870 O.2     
  42 H42           -0.5606     2.2903    -0.5974 H       
  43 H43           -0.4637     1.3800     0.9382 H       
  44 H44            1.4472    -0.7371    -1.7685 H       
  45 H45            0.8450     0.7331    -2.5884 H       
  46 H46            3.9996     0.6375    -1.7687 H       
  47 H47            4.0416     3.5109     1.4158 H       
  48 H48            1.5998     3.2964     1.6282 H       
  49 H49            8.0389     3.9974     0.8199 H       
  50 H50            8.1724     2.5559    -0.2223 H       
  51 H51            4.4273     4.4484    -0.1978 H       
  52 H52            5.4891     4.8870     1.1608 H       
  53 H53            9.1526     4.7146    -1.1828 H       
  54 H54            7.9843     3.8708    -2.2215 H       
  55 H55            4.3264     6.9842    -0.3228 H       
  56 H56            6.6900     8.4963    -4.6947 H       
  57 H57            8.7349    10.5806    -4.6522 H       
  58 H58            6.4543    13.3618    -5.3688 H       
  59 H59            6.8804     9.5642    -6.8515 H       
  60 H60            8.1467    10.7930    -7.0856 H       
  61 H61            7.4624     7.2499    -6.4031 H       
  62 H62           10.4944    10.1943    -6.9746 H       
  63 H63           11.4974     6.0505    -7.0885 H       
  64 H64            9.1416     5.4690    -6.6685 H       
  65 H65           13.4690     7.7548    -5.1925 H       
  66 H66           14.6198     8.9660    -5.8065 H       
  67 H67           13.0504     9.4842    -5.1455 H       
@<TRIPOS>BOND
   1    1    2 1
   2    1    5 1
   3    1   42 1
   4    1   43 1
   5    2    3 1
   6    3    4 1
   7    3   44 1
   8    3   45 1
   9    4    5 ar
  10    4    6 ar
  11    5    9 ar
  12    6    7 ar
  13    6   46 1
  14    7    8 ar
  15    7   10 1
  16    8    9 ar
  17    8   47 1
  18    9   48 1
  19   10   11 2
  20   10   12 am
  21   12   13 1
  22   12   14 1
  23   13   17 1
  24   13   49 1
  25   13   50 1
  26   14   15 1
  27   14   51 1
  28   14   52 1
  29   15   16 ar
  30   15   18 ar
  31   16   17 1
  32   16   21 ar
  33   17   53 1
  34   17   54 1
  35   18   19 ar
  36   18   55 1
  37   19   20 ar
  38   19   23 1
  39   20   21 ar
  40   20   24 1
  41   21   22 1
  42   24   25 am
  43   24   26 2
  44   25   27 1
  45   25   56 1
  46   27   28 1
  47   27   31 1
  48   27   57 1
  49   28   29 1
  50   28   30 2
  51   29   58 1
  52   31   32 1
  53   31   59 1
  54   31   60 1
  55   32   33 ar
  56   32   34 ar
  57   33   37 ar
  58   33   61 1
  59   34   35 ar
  60   34   62 1
  61   35   36 ar
  62   35   38 1
  63   36   37 ar
  64   36   63 1
  65   37   64 1
  66   38   39 1
  67   38   40 2
  68   38   41 2
  69   39   65 1
  70   39   66 1
  71   39   67 1

#	End of record

