#	Name: ASD06300015
#	Creating user name:	WinNT
#	Creation time:	15. 06. 2019 21:05

#	Modifying user name:	WinNT
#	Modification time:	15. 06. 2019 21:05

#	Program:	/corina/corina34_cracker 3.40 0067  02.08.2006

@<TRIPOS>MOLECULE
ASD06300015
 240  246    0    0    0
SMALL
NO_CHARGES


@<TRIPOS>ATOM
   1 N1            -3.1622     3.1465    12.0936 N.am    
   2 C2            -6.3578    -8.0714    10.6346 C.3     
   3 C3            -5.7749    -9.1880     9.7660 C.3     
   4 C4            -5.2361    -8.6003     8.4872 C.2     
   5 N5            -6.8244   -10.1608     9.4522 N.am    
   6 O6            -5.7723    -8.8550     7.4296 O.2     
   7 C7            -7.5954    -7.4868     9.9510 C.3     
   8 C8            -8.3569    -6.6047    10.9425 C.3     
   9 C9            -7.1641    -6.6463     8.7475 C.3     
  10 C10           -2.6823    -8.2200     6.6164 C.3     
  11 C11           -3.6346    -7.2202     7.2756 C.3     
  12 C12           -2.8912    -5.9458     7.5826 C.2     
  13 N13           -4.1584    -7.7916     8.5188 N.am    
  14 O14           -2.6173    -5.6649     8.7302 O.2     
  15 C15           -3.4499    -9.4932     6.2549 C.3     
  16 C16           -2.5120   -10.4779     5.6055 C.2     
  17 O17           -1.3445   -10.1897     5.4475 O.2     
  18 N18           -2.9705   -11.6788     5.2004 N.am    
  19 C19           -1.0212    -3.3990     5.7175 C.3     
  20 C20           -1.9102    -3.8266     6.8870 C.3     
  21 C21           -2.9843    -2.7925     7.1059 C.2     
  22 N22           -2.5307    -5.1182     6.5818 N.am    
  23 O23           -4.1530    -3.1037     7.0158 O.2     
  24 C24            0.0779    -4.4120     5.5253 C.2     
  25 C25            1.3094    -4.3648     6.0575 C.2     
  26 N26            2.0310    -5.4576     5.6609 N.pl3   
  27 C27            1.2620    -6.2548     4.8432 C.ar    
  28 C28            0.0029    -5.6382     4.7274 C.ar    
  29 C29            1.4968    -7.4549     4.1796 C.ar    
  30 C30            0.5001    -8.0203     3.4151 C.ar    
  31 C31           -0.7388    -7.4046     3.2990 C.ar    
  32 C32           -0.9955    -6.2329     3.9534 C.ar    
  33 C33           -4.1192     0.0664     6.2665 C.3     
  34 C34           -3.6902    -0.5165     7.6144 C.3     
  35 C35           -3.1547     0.5861     8.4910 C.2     
  36 N36           -2.6461    -1.5218     7.4017 N.am    
  37 O37           -2.0133     0.5371     8.8980 O.2     
  38 C38           -4.7768    -1.0280     5.4235 C.3     
  39 C39           -5.2058    -0.4451     4.0756 C.3     
  40 C40           -5.8635    -1.5396     3.2327 C.3     
  41 N41           -6.2753    -0.9799     1.9384 N.3     
  42 C42           -4.2057     3.9867     9.4093 C.3     
  43 C43           -3.4237     2.6987     9.6750 C.3     
  44 C44           -3.5758     2.3083    11.1226 C.2     
  45 N45           -3.9443     1.6268     8.8228 N.am    
  46 O46           -4.0703     1.2399    11.4137 O.2     
  47 C47           -3.9549     4.4441     7.9955 C.2     
  48 C48           -3.0378     5.3396     7.5967 C.2     
  49 N49           -3.1031     5.5014     6.2396 N.pl3   
  50 C50           -4.0889     4.6934     5.7188 C.ar    
  51 C51           -4.6613     3.9910     6.7948 C.ar    
  52 C52           -4.5650     4.4725     4.4303 C.ar    
  53 C53           -5.5913     3.5771     4.2244 C.ar    
  54 C54           -6.1571     2.8911     5.2905 C.ar    
  55 C55           -5.6955     3.0822     6.5622 C.ar    
  56 C56          -11.2022   -24.6683     8.6286 C.2     
  57 N57          -13.2869   -24.3125     7.4386 N.am    
  58 C58          -12.6081   -24.1344     8.7246 C.3     
  59 C59          -13.3692   -24.8946     9.8126 C.3     
  60 C60          -14.7544   -24.2713     9.9963 C.3     
  61 C61          -15.5154   -25.0315    11.0843 C.3     
  62 C62          -16.9006   -24.4083    11.2681 C.3     
  63 O63          -10.8891   -25.3828     7.7064 O.2     
  64 O64          -16.0013   -22.7959     3.4363 O.2     
  65 C65          -16.5079   -22.3193     4.4298 C.2     
  66 C66          -17.6108   -21.3008     4.2987 C.3     
  67 C67           -8.7947   -24.8496     9.5729 C.3     
  68 C68          -10.2007   -24.3157     9.6689 C.2     
  69 N69           -7.9021   -24.0305    10.4037 N.3     
  70 O70          -10.5137   -23.6013    10.5911 O.2     
  71 C71           -6.4223   -26.8526    10.7538 C.ar    
  72 C72           -5.1796   -27.4010    10.4977 C.ar    
  73 C73           -4.9237   -27.9920     9.2745 C.ar    
  74 C74           -5.9108   -28.0350     8.3076 C.ar    
  75 C75           -7.1534   -27.4861     8.5636 C.ar    
  76 C76           -7.4092   -26.8951     9.7868 C.ar    
  77 C77           -8.7642   -26.2976    10.0662 C.3     
  78 C78          -10.7520   -19.3000    11.2244 C.3     
  79 C79           -9.2228   -19.2860    11.2706 C.3     
  80 C80           -8.7496   -17.9755    11.8449 C.2     
  81 N81           -8.7495   -20.3875    12.1127 N.am    
  82 O82           -8.0827   -17.9629    12.8579 O.2     
  83 C83          -11.2967   -19.3350    12.6291 C.2     
  84 O84          -10.5430   -19.4472    13.5667 O.2     
  85 O85          -12.6193   -19.2414    12.8386 O.3     
  86 C86           -8.0591   -12.2545     9.9108 C.3     
  87 C87           -7.0589   -11.1921    10.2875 C.2     
  88 N88           -8.1314   -13.2571    10.9766 N.am    
  89 O89           -6.4650   -11.2652    11.3424 O.2     
  90 C90          -11.1388   -13.4022    10.1267 C.ar    
  91 C91          -12.0313   -14.3550     9.6723 C.ar    
  92 C92          -12.1932   -14.5587     8.3147 C.ar    
  93 C93          -11.4629   -13.8093     7.4114 C.ar    
  94 C94          -10.5700   -12.8569     7.8657 C.ar    
  95 C95          -10.4081   -12.6532     9.2234 C.ar    
  96 C96           -9.4353   -11.6142     9.7187 C.3     
  97 C97          -15.6070   -25.0986     5.7066 C.3     
  98 C98          -15.0123   -23.6908     5.7787 C.3     
  99 C99          -14.3140   -23.5076     7.1015 C.2     
 100 N100         -16.0845   -22.7006     5.6512 N.am    
 101 O101         -14.6763   -22.6358     7.8629 O.2     
 102 O102         -16.4573   -25.3149     6.8345 O.3     
 103 C103          -9.5888   -15.0743    12.8671 C.3     
 104 C104          -8.6074   -15.5436    11.7912 C.3     
 105 C105          -8.5330   -14.5124    10.6948 C.2     
 106 N106          -9.0675   -16.8176    11.2329 N.am    
 107 O107          -8.8346   -14.8120     9.5590 O.2     
 108 N108         -10.5360   -16.5328    16.2348 N.pl3   
 109 C109         -11.3429   -16.3169    17.3268 C.2     
 110 N110         -12.1229   -15.2732    17.3646 N.2     
 111 N111         -11.3273   -17.2019    18.3788 N.pl3   
 112 C112          -9.5713   -16.0591    14.0379 C.3     
 113 C113         -10.5527   -15.5898    15.1138 C.3     
 114 C114          -8.0561   -22.7403    12.4321 C.3     
 115 C115          -8.6484   -21.6306    11.6021 C.2     
 116 N116          -8.3344   -24.0328    11.7919 N.3     
 117 O117          -9.0341   -21.8564    10.4746 O.2     
 118 C118          -5.3881   -24.6972    13.0776 C.ar    
 119 C119          -4.8694   -25.6050    13.9819 C.ar    
 120 C120          -4.9405   -25.3472    15.3381 C.ar    
 121 C121          -5.5299   -24.1813    15.7901 C.ar    
 122 C122          -6.0491   -23.2738    14.8858 C.ar    
 123 C123          -5.9780   -23.5316    13.5296 C.ar    
 124 C124          -6.5431   -22.5417    12.5438 C.3     
 125 H125          -2.7667     4.0010    11.8607 H       
 126 H126          -3.2637     2.8969    13.0254 H       
 127 H127          -6.6371    -8.4761    11.6074 H       
 128 H128          -5.6119    -7.2877    10.7676 H       
 129 H129          -4.9686    -9.6847    10.3056 H       
 130 H130          -7.3505   -10.0626     8.6432 H       
 131 H131          -8.2419    -8.2975     9.6150 H       
 132 H132          -7.7104    -5.7940    11.2784 H       
 133 H133          -9.2386    -6.1883    10.4555 H       
 134 H134          -8.6642    -7.2036    11.7999 H       
 135 H135          -6.7252    -7.2952     7.9896 H       
 136 H136          -8.0326    -6.1364     8.3304 H       
 137 H137          -6.4274    -5.9084     9.0649 H       
 138 H138          -2.2624    -7.7797     5.7120 H       
 139 H139          -1.8770    -8.4655     7.3087 H       
 140 H140          -4.4610    -7.0047     6.5983 H       
 141 H141          -3.7296    -7.5878     9.3647 H       
 142 H142          -3.8698    -9.9335     7.1592 H       
 143 H143          -4.2552    -9.2477     5.5625 H       
 144 H144          -3.9042   -11.9093     5.3268 H       
 145 H145          -2.3668   -12.3126     4.7825 H       
 146 H146          -1.6206    -3.3365     4.8093 H       
 147 H147          -0.5833    -2.4240     5.9315 H       
 148 H148          -1.3049    -3.9184     7.7888 H       
 149 H149          -2.6821    -5.3777     5.6595 H       
 150 H150           1.6764    -3.5802     6.7026 H       
 151 H151           2.9480    -5.6428     5.9174 H       
 152 H152           2.4573    -7.9414     4.2634 H       
 153 H153           0.6844    -8.9517     2.9005 H       
 154 H154          -1.5093    -7.8609     2.6953 H       
 155 H155          -1.9623    -5.7607     3.8602 H       
 156 H156          -4.8308     0.8756     6.4305 H       
 157 H157          -3.2447     0.4523     5.7426 H       
 158 H158          -4.5488    -0.9814     8.0990 H       
 159 H159          -1.7113    -1.2730     7.4736 H       
 160 H160          -4.0652    -1.8372     5.2595 H       
 161 H161          -5.6514    -1.4139     5.9474 H       
 162 H162          -5.9174     0.3641     4.2396 H       
 163 H163          -4.3313    -0.0592     3.5517 H       
 164 H164          -5.1518    -2.3488     3.0686 H       
 165 H165          -6.7380    -1.9254     3.7565 H       
 166 H166          -5.4927    -0.5579     1.4615 H       
 167 H167          -6.7128    -1.6837     1.3628 H       
 168 H168          -5.2707     3.8002     9.5473 H       
 169 H169          -3.8791     4.7600    10.1046 H       
 170 H170          -2.3693     2.8611     9.4513 H       
 171 H171          -4.8572     1.6661     8.4973 H       
 172 H172          -2.3506     5.8563     8.2503 H       
 173 H173          -2.5392     6.0968     5.7216 H       
 174 H174          -4.1316     5.0015     3.5945 H       
 175 H175          -5.9597     3.4073     3.2234 H       
 176 H176          -6.9614     2.1927     5.1118 H       
 177 H177          -6.1391     2.5434     7.3864 H       
 178 H178         -12.9972   -25.0098     6.8297 H       
 179 H179         -12.5778   -23.0742     8.9756 H       
 180 H180         -13.4767   -25.9388     9.5188 H       
 181 H181         -12.8171   -24.8361    10.7506 H       
 182 H182         -14.6469   -23.2272    10.2901 H       
 183 H183         -15.3065   -24.3299     9.0583 H       
 184 H184         -15.6229   -26.0757    10.7905 H       
 185 H185         -14.9634   -24.9730    12.0223 H       
 186 H186         -16.7931   -23.3641    11.5618 H       
 187 H187         -17.4527   -24.4668    10.3300 H       
 188 H188         -17.4428   -24.9498    12.0432 H       
 189 H189         -17.8153   -21.1205     3.2433 H       
 190 H190         -18.5116   -21.6761     4.7844 H       
 191 H191         -17.3033   -20.3691     4.7735 H       
 192 H192          -8.4618   -24.8121     8.5357 H       
 193 H193          -6.9457   -24.3416    10.3223 H       
 194 H194          -6.6237   -26.3948    11.7111 H       
 195 H195          -4.4084   -27.3674    11.2530 H       
 196 H196          -3.9525   -28.4198     9.0741 H       
 197 H197          -5.7106   -28.4961     7.3517 H       
 198 H198          -7.9244   -27.5194     7.8081 H       
 199 H199          -8.9571   -26.3202    11.1388 H       
 200 H200          -9.5297   -26.8745     9.5472 H       
 201 H201         -11.1085   -18.4026    10.7187 H       
 202 H202         -11.0910   -20.1821    10.6812 H       
 203 H203          -8.8277   -19.4043    10.2617 H       
 204 H204          -8.5090   -20.2220    13.0377 H       
 205 H205         -12.9213   -19.2686    13.7568 H       
 206 H206          -7.7483   -12.7332     8.9822 H       
 207 H207          -7.8902   -13.0174    11.8850 H       
 208 H208         -11.0156   -13.2400    11.1873 H       
 209 H209         -12.6019   -14.9404    10.3780 H       
 210 H210         -12.8901   -15.3036     7.9597 H       
 211 H211         -11.5889   -13.9690     6.3507 H       
 212 H212          -9.9991   -12.2717     7.1600 H       
 213 H213          -9.7853   -11.2130    10.6698 H       
 214 H214          -9.3622   -10.8078     8.9890 H       
 215 H215         -16.1869   -25.2016     4.7894 H       
 216 H216         -14.8022   -25.8337     5.7121 H       
 217 H217         -14.2959   -23.5570     4.9681 H       
 218 H218         -16.4897   -22.3195     6.4459 H       
 219 H219         -16.8697   -26.1893     6.8543 H       
 220 H220          -9.2957   -14.0854    13.2197 H       
 221 H221         -10.5934   -15.0272    12.4469 H       
 222 H222          -7.6199   -15.6761    12.2331 H       
 223 H223          -9.6008   -16.8277    10.4228 H       
 224 H224          -9.9556   -17.3095    16.2066 H       
 225 H225         -12.6922   -15.1209    18.1350 H       
 226 H226         -10.7469   -17.9785    18.3506 H       
 227 H227         -11.8966   -17.0495    19.1492 H       
 228 H228          -9.8644   -17.0480    13.6852 H       
 229 H229          -8.5667   -16.1062    14.4581 H       
 230 H230         -11.5573   -15.5427    14.6936 H       
 231 H231         -10.2596   -14.6009    15.4664 H       
 232 H232          -8.4990   -22.7252    13.4280 H       
 233 H233          -9.3124   -24.2697    11.8656 H       
 234 H234          -5.3286   -24.8966    12.0178 H       
 235 H235          -4.4089   -26.5159    13.6288 H       
 236 H236          -4.5358   -26.0568    16.0446 H       
 237 H237          -5.5861   -23.9802    16.8497 H       
 238 H238          -6.5099   -22.3631    15.2390 H       
 239 H239          -6.0832   -22.6978    11.5680 H       
 240 H240          -6.3340   -21.5282    12.8861 H       
@<TRIPOS>BOND
   1    1   44 am
   2    1  125 1
   3    1  126 1
   4    2    7 1
   5    2    3 1
   6    2  127 1
   7    2  128 1
   8    3    5 1
   9    3    4 1
  10    3  129 1
  11    4    6 2
  12    4   13 am
  13    5   87 am
  14    5  130 1
  15    7    8 1
  16    7    9 1
  17    7  131 1
  18    8  132 1
  19    8  133 1
  20    8  134 1
  21    9  135 1
  22    9  136 1
  23    9  137 1
  24   10   15 1
  25   10   11 1
  26   10  138 1
  27   10  139 1
  28   11   13 1
  29   11   12 1
  30   11  140 1
  31   12   14 2
  32   12   22 am
  33   13  141 1
  34   15   16 1
  35   15  142 1
  36   15  143 1
  37   16   17 2
  38   16   18 am
  39   18  144 1
  40   18  145 1
  41   19   24 1
  42   19   20 1
  43   19  146 1
  44   19  147 1
  45   20   21 1
  46   20   22 1
  47   20  148 1
  48   21   23 2
  49   21   36 am
  50   22  149 1
  51   24   25 2
  52   24   28 1
  53   25   26 1
  54   25  150 1
  55   26   27 1
  56   26  151 1
  57   27   28 ar
  58   27   29 ar
  59   28   32 ar
  60   29   30 ar
  61   29  152 1
  62   30   31 ar
  63   30  153 1
  64   31   32 ar
  65   31  154 1
  66   32  155 1
  67   33   38 1
  68   33   34 1
  69   33  156 1
  70   33  157 1
  71   34   36 1
  72   34   35 1
  73   34  158 1
  74   35   37 2
  75   35   45 am
  76   36  159 1
  77   38   39 1
  78   38  160 1
  79   38  161 1
  80   39   40 1
  81   39  162 1
  82   39  163 1
  83   40   41 1
  84   40  164 1
  85   40  165 1
  86   41  166 1
  87   41  167 1
  88   42   47 1
  89   42   43 1
  90   42  168 1
  91   42  169 1
  92   43   44 1
  93   43   45 1
  94   43  170 1
  95   44   46 2
  96   45  171 1
  97   47   48 2
  98   47   51 1
  99   48   49 1
 100   48  172 1
 101   49   50 1
 102   49  173 1
 103   50   51 ar
 104   50   52 ar
 105   51   55 ar
 106   52   53 ar
 107   52  174 1
 108   53   54 ar
 109   53  175 1
 110   54   55 ar
 111   54  176 1
 112   55  177 1
 113   56   63 2
 114   56   58 1
 115   56   68 1
 116   57   58 1
 117   57   99 am
 118   57  178 1
 119   58   59 1
 120   58  179 1
 121   59   60 1
 122   59  180 1
 123   59  181 1
 124   60   61 1
 125   60  182 1
 126   60  183 1
 127   61   62 1
 128   61  184 1
 129   61  185 1
 130   62  186 1
 131   62  187 1
 132   62  188 1
 133   64   65 2
 134   65   66 1
 135   65  100 am
 136   66  189 1
 137   66  190 1
 138   66  191 1
 139   67   68 1
 140   67   69 1
 141   67   77 1
 142   67  192 1
 143   68   70 2
 144   69  116 1
 145   69  193 1
 146   71   72 ar
 147   71   76 ar
 148   71  194 1
 149   72   73 ar
 150   72  195 1
 151   73   74 ar
 152   73  196 1
 153   74   75 ar
 154   74  197 1
 155   75   76 ar
 156   75  198 1
 157   76   77 1
 158   77  199 1
 159   77  200 1
 160   78   83 1
 161   78   79 1
 162   78  201 1
 163   78  202 1
 164   79   80 1
 165   79   81 1
 166   79  203 1
 167   80   82 2
 168   80  106 am
 169   81  115 am
 170   81  204 1
 171   83   84 2
 172   83   85 1
 173   85  205 1
 174   86   87 1
 175   86   88 1
 176   86   96 1
 177   86  206 1
 178   87   89 2
 179   88  105 am
 180   88  207 1
 181   90   91 ar
 182   90   95 ar
 183   90  208 1
 184   91   92 ar
 185   91  209 1
 186   92   93 ar
 187   92  210 1
 188   93   94 ar
 189   93  211 1
 190   94   95 ar
 191   94  212 1
 192   95   96 1
 193   96  213 1
 194   96  214 1
 195   97  102 1
 196   97   98 1
 197   97  215 1
 198   97  216 1
 199   98  100 1
 200   98   99 1
 201   98  217 1
 202   99  101 2
 203  100  218 1
 204  102  219 1
 205  103  112 1
 206  103  104 1
 207  103  220 1
 208  103  221 1
 209  104  106 1
 210  104  105 1
 211  104  222 1
 212  105  107 2
 213  106  223 1
 214  108  113 1
 215  108  109 1
 216  108  224 1
 217  109  110 2
 218  109  111 1
 219  110  225 1
 220  111  226 1
 221  111  227 1
 222  112  113 1
 223  112  228 1
 224  112  229 1
 225  113  230 1
 226  113  231 1
 227  114  115 1
 228  114  116 1
 229  114  124 1
 230  114  232 1
 231  115  117 2
 232  116  233 1
 233  118  119 ar
 234  118  123 ar
 235  118  234 1
 236  119  120 ar
 237  119  235 1
 238  120  121 ar
 239  120  236 1
 240  121  122 ar
 241  121  237 1
 242  122  123 ar
 243  122  238 1
 244  123  124 1
 245  124  239 1
 246  124  240 1

#	End of record

