#	Name: ASD03740183
#	Creating user name:	WinNT
#	Creation time:	15. 06. 2019 20:46

#	Modifying user name:	WinNT
#	Modification time:	15. 06. 2019 20:46

#	Program:	/corina/corina34_cracker 3.40 0067  02.08.2006

@<TRIPOS>MOLECULE
ASD03740183
  12   13    0    0    0
SMALL
NO_CHARGES


@<TRIPOS>ATOM
   1 N1            -0.0157     1.3087     0.0092 N.ar    
   2 C2             0.0021    -0.0041     0.0020 C.ar    
   3 C3             1.2076    -0.7179    -0.0133 C.ar    
   4 N4             2.3673    -0.1024    -0.0211 N.ar    
   5 C5             1.1385     1.9835     0.0018 C.ar    
   6 N6             1.5014     3.2568     0.0043 N.2     
   7 C7             2.4041     1.2341    -0.0143 C.ar    
   8 N8             3.3460     2.1645    -0.0187 N.2     
   9 N9             2.7867     3.3235    -0.0081 N.pl3   
  10 Cl10          -1.5002    -0.8740     0.0123 Cl      
  11 Cl11           1.1670    -2.4534    -0.0217 Cl      
  12 H12            3.2809     4.1582    -0.0092 H       
@<TRIPOS>BOND
   1    1    2 ar
   2    1    5 ar
   3    2    3 ar
   4    2   10 1
   5    3    4 ar
   6    3   11 1
   7    4    7 ar
   8    5    7 ar
   9    5    6 2
  10    6    9 1
  11    7    8 2
  12    8    9 1
  13    9   12 1

#	End of record

