#	Name: ASD01810091
#	Creating user name:	WinNT
#	Creation time:	15. 06. 2019 19:23

#	Modifying user name:	WinNT
#	Modification time:	15. 06. 2019 19:23

#	Program:	/corina/corina34_cracker 3.40 0067  02.08.2006

@<TRIPOS>MOLECULE
ASD01810091
  61   65    0    0    0
SMALL
NO_CHARGES


@<TRIPOS>ATOM
   1 C1            -0.7184     1.9322    -0.5144 C.ar    
   2 C2            -0.8235     0.5576    -0.6359 C.ar    
   3 C3             0.3128    -0.2216    -0.7370 C.ar    
   4 C4             1.5633     0.3761    -0.7167 C.ar    
   5 C5             1.6693     1.7633    -0.5941 C.ar    
   6 C6             0.5235     2.5369    -0.4932 C.ar    
   7 N7             2.8620    -0.1213    -0.7967 N.am    
   8 C8             3.7182     0.9153    -0.7261 C.2     
   9 N9             3.0290     2.0654    -0.6035 N.am    
  10 O10            4.9312     0.8263    -0.7672 O.2     
  11 C11            3.6101     3.4061    -0.4988 C.3     
  12 C12            4.5091     3.4790     0.7385 C.3     
  13 C13            5.1607     4.8620     0.8088 C.3     
  14 N14            5.9510     5.0945    -0.4069 N.3     
  15 C15            5.1011     5.0761    -1.6043 C.3     
  16 C16            4.4477     3.6996    -1.7466 C.3     
  17 C17            6.7021     6.3534    -0.3137 C.3     
  18 C18            7.6062     6.4997    -1.5398 C.3     
  19 C19            8.4133     7.7964    -1.4224 C.3     
  20 N20            7.4831     8.9159    -1.2216 N.am    
  21 C21            6.5088     8.8367    -0.1248 C.3     
  22 C22            5.7230     7.5283    -0.2567 C.3     
  23 C23            7.5232     9.9950    -2.0280 C.2     
  24 O24            6.6816    10.8655    -1.9206 O.2     
  25 C25            8.5907    10.1201    -3.0432 C.ar    
  26 C26            8.2896    10.5889    -4.3227 C.ar    
  27 C27            9.2906    10.7037    -5.2653 C.ar    
  28 C28           10.5902    10.3547    -4.9446 C.ar    
  29 C29           10.8955     9.8891    -3.6777 C.ar    
  30 C30            9.9052     9.7751    -2.7243 C.ar    
  31 C31            8.9673    11.2098    -6.6475 C.3     
  32 H32           -1.6114     2.5352    -0.4404 H       
  33 H33           -1.7978     0.0920    -0.6514 H       
  34 H34            0.2270    -1.2941    -0.8313 H       
  35 H35            0.6015     3.6099    -0.3986 H       
  36 H36            3.1075    -1.0553    -0.8873 H       
  37 H37            2.8119     4.1434    -0.4131 H       
  38 H38            3.9100     3.3131     1.6339 H       
  39 H39            5.2834     2.7149     0.6713 H       
  40 H40            4.3863     5.6247     0.8899 H       
  41 H41            5.8126     4.9123     1.6809 H       
  42 H42            4.3269     5.8378    -1.5118 H       
  43 H43            5.7097     5.2820    -2.4848 H       
  44 H44            5.2211     2.9389    -1.8529 H       
  45 H45            3.8047     3.6912    -2.6267 H       
  46 H46            7.3129     6.3459     0.5890 H       
  47 H47            8.2876     5.6506    -1.5927 H       
  48 H48            6.9943     6.5324    -2.4412 H       
  49 H49            9.0923     7.7285    -0.5724 H       
  50 H50            8.9844     7.9554    -2.3371 H       
  51 H51            7.0325     8.8537     0.8311 H       
  52 H52            5.8233     9.6821    -0.1832 H       
  53 H53            5.1288     7.5513    -1.1702 H       
  54 H54            5.0641     7.4113     0.6036 H       
  55 H55            7.2752    10.8610    -4.5746 H       
  56 H56           11.3700    10.4457    -5.6863 H       
  57 H57           11.9122     9.6183    -3.4337 H       
  58 H58           10.1448     9.4119    -1.7359 H       
  59 H59            9.0710    12.2946    -6.6707 H       
  60 H60            9.6535    10.7638    -7.3675 H       
  61 H61            7.9437    10.9371    -6.9041 H       
@<TRIPOS>BOND
   1    1    2 ar
   2    1    6 ar
   3    1   32 1
   4    2    3 ar
   5    2   33 1
   6    3    4 ar
   7    3   34 1
   8    4    5 ar
   9    4    7 1
  10    5    6 ar
  11    5    9 1
  12    6   35 1
  13    7    8 am
  14    7   36 1
  15    8    9 am
  16    8   10 2
  17    9   11 1
  18   11   12 1
  19   11   16 1
  20   11   37 1
  21   12   13 1
  22   12   38 1
  23   12   39 1
  24   13   14 1
  25   13   40 1
  26   13   41 1
  27   14   15 1
  28   14   17 1
  29   15   16 1
  30   15   42 1
  31   15   43 1
  32   16   44 1
  33   16   45 1
  34   17   18 1
  35   17   22 1
  36   17   46 1
  37   18   19 1
  38   18   47 1
  39   18   48 1
  40   19   20 1
  41   19   49 1
  42   19   50 1
  43   20   21 1
  44   20   23 am
  45   21   22 1
  46   21   51 1
  47   21   52 1
  48   22   53 1
  49   22   54 1
  50   23   24 2
  51   23   25 1
  52   25   26 ar
  53   25   30 ar
  54   26   27 ar
  55   26   55 1
  56   27   28 ar
  57   27   31 1
  58   28   29 ar
  59   28   56 1
  60   29   30 ar
  61   29   57 1
  62   30   58 1
  63   31   59 1
  64   31   60 1
  65   31   61 1

#	End of record

