#	Name: ASD05740121
#	Creating user name:	WinNT
#	Creation time:	15. 06. 2019 21:02

#	Modifying user name:	WinNT
#	Modification time:	15. 06. 2019 21:02

#	Program:	/corina/corina34_cracker 3.40 0067  02.08.2006

@<TRIPOS>MOLECULE
ASD05740121
  56   59    0    0    0
SMALL
NO_CHARGES


@<TRIPOS>ATOM
   1 C1            -0.8201     0.7166    -0.6917 C.ar    
   2 C2            -3.2190    -0.6596     3.2859 C.2     
   3 C3            -2.6659    -1.7733     3.9115 C.2     
   4 C4            -3.0774    -0.5035     1.8966 C.2     
   5 C5            -2.3971    -1.4528     1.1903 C.2     
   6 C6            -1.8543    -2.5616     1.8598 C.2     
   7 O7            -1.9982    -2.6976     3.1893 O.3     
   8 C8            -2.2298    -1.3122    -0.3007 C.3     
   9 C9            -0.9050    -0.6584    -0.5981 C.ar    
  10 C10            0.2244    -1.4364    -0.7775 C.ar    
  11 O11           -1.2466    -3.4096     1.2286 O.2     
  12 C12            0.4017     1.3185    -0.9658 C.ar    
  13 C13            1.5340     0.5343    -1.1450 C.ar    
  14 C14            1.4419    -0.8407    -1.0500 C.ar    
  15 N15            0.4911     2.7091    -1.0616 N.am    
  16 S16            1.3412     3.4006    -2.3032 S.o2    
  17 O17            1.2152     4.8067    -2.1415 O.2     
  18 O18            2.5947     2.7331    -2.3520 O.2     
  19 C19           -2.9629    -1.6618     5.2840 C.2     
  20 C20           -3.6689    -0.5192     5.4651 C.2     
  21 S21           -2.4989    -2.8049     6.5421 S.3     
  22 C22           -3.6148    -4.1212     6.1862 C.ar    
  23 N23           -3.5172    -5.2546     6.8671 N.ar    
  24 N24           -4.5359    -3.9530     5.2475 N.ar    
  25 C25           -5.3888    -4.9209     4.9564 C.ar    
  26 C26           -5.3111    -6.1210     5.6459 C.ar    
  27 C27           -4.3395    -6.2616     6.6248 C.ar    
  28 N28           -3.8371     0.0980     4.2585 N.pl3   
  29 C29           -4.5477     1.3596     4.0358 C.3     
  30 N30            0.5533     3.0191    -3.7089 N.am    
  31 C31           -0.7971     3.5317    -3.9540 C.3     
  32 C32           -3.6679     0.6937     1.1971 C.3     
  33 C33           -5.1380     0.4208     0.8726 C.3     
  34 H34           -1.7033     1.3232    -0.5562 H       
  35 H35           -2.2607    -2.2982    -0.7644 H       
  36 H36           -3.0362    -0.6973    -0.7004 H       
  37 H37            0.1551    -2.5117    -0.7041 H       
  38 H38            2.4853     0.9990    -1.3582 H       
  39 H39            2.3220    -1.4510    -1.1888 H       
  40 H40            0.0553     3.2697    -0.4008 H       
  41 H41           -4.0428    -0.1572     6.4114 H       
  42 H42           -6.1372    -4.7778     4.1909 H       
  43 H43           -5.9955    -6.9276     5.4283 H       
  44 H44           -4.2526    -7.1838     7.1801 H       
  45 H45           -5.5664     1.1501     3.7093 H       
  46 H46           -4.5739     1.9306     4.9639 H       
  47 H47           -4.0317     1.9367     3.2685 H       
  48 H48            0.9858     2.4563    -4.3700 H       
  49 H49           -1.4679     3.1770    -3.1716 H       
  50 H50           -0.7783     4.6215    -3.9501 H       
  51 H51           -1.1497     3.1778    -4.9228 H       
  52 H52           -3.5950     1.5663     1.8462 H       
  53 H53           -3.1207     0.8812     0.2734 H       
  54 H54           -5.6853     0.2332     1.7964 H       
  55 H55           -5.5651     1.2867     0.3667 H       
  56 H56           -5.2109    -0.4518     0.2235 H       
@<TRIPOS>BOND
   1    1    9 ar
   2    1   12 ar
   3    1   34 1
   4    2    3 2
   5    2    4 1
   6    2   28 1
   7    3   19 1
   8    3    7 1
   9    4    5 2
  10    4   32 1
  11    5    6 1
  12    5    8 1
  13    6    7 1
  14    6   11 2
  15    8    9 1
  16    8   35 1
  17    8   36 1
  18    9   10 ar
  19   10   14 ar
  20   10   37 1
  21   12   13 ar
  22   12   15 1
  23   13   14 ar
  24   13   38 1
  25   14   39 1
  26   15   16 am
  27   15   40 1
  28   16   17 2
  29   16   18 2
  30   16   30 am
  31   19   20 2
  32   19   21 1
  33   20   28 1
  34   20   41 1
  35   21   22 1
  36   22   23 ar
  37   22   24 ar
  38   23   27 ar
  39   24   25 ar
  40   25   26 ar
  41   25   42 1
  42   26   27 ar
  43   26   43 1
  44   27   44 1
  45   28   29 1
  46   29   45 1
  47   29   46 1
  48   29   47 1
  49   30   31 1
  50   30   48 1
  51   31   49 1
  52   31   50 1
  53   31   51 1
  54   32   33 1
  55   32   52 1
  56   32   53 1
  57   33   54 1
  58   33   55 1
  59   33   56 1

#	End of record

