#	Name: ASD01230036
#	Creating user name:	WinNT
#	Creation time:	15. 06. 2019 19:11

#	Modifying user name:	WinNT
#	Modification time:	15. 06. 2019 19:11

#	Program:	/corina/corina34_cracker 3.40 0067  02.08.2006

@<TRIPOS>MOLECULE
ASD01230036
  30   32    0    0    0
SMALL
NO_CHARGES


@<TRIPOS>ATOM
   1 C1            -0.0167     1.3774     0.0096 C.ar    
   2 C2             0.0021    -0.0041     0.0020 C.ar    
   3 C3            -1.1886    -0.7188    -0.0045 C.ar    
   4 C4            -2.4234    -0.0417    -0.0026 C.ar    
   5 C5            -2.4155     1.3429     0.0323 C.ar    
   6 C6            -1.2284     2.0474     0.0306 C.ar    
   7 N7            -3.5780    -0.8080    -0.0742 N.3     
   8 C8            -4.7741    -0.2610     0.5529 C.3     
   9 N9            -5.1061     1.0349    -0.0759 N.am    
  10 S10           -3.9481     2.2236     0.1193 S.o2    
  11 O11           -4.0721     2.7070     1.4498 O.2     
  12 O12           -4.0123     3.0560    -1.0306 O.2     
  13 C13           -5.9400    -1.2336     0.3644 C.3     
  14 Cl14           1.4726     2.2695     0.0002 Cl      
  15 C15           -1.1596    -2.2025    -0.0139 C.2     
  16 C16           -0.3890    -3.0670    -0.9145 C.2     
  17 C17           -0.6757    -4.3291    -0.5529 C.2     
  18 O18           -1.5399    -4.3038     0.4729 O.3     
  19 C19           -1.8364    -3.0404     0.8130 C.2     
  20 H20            0.9455    -0.5297     0.0008 H       
  21 H21           -1.2449     3.1273     0.0367 H       
  22 H22           -3.7653    -1.0918    -1.0241 H       
  23 H23           -4.5916    -0.1128     1.6173 H       
  24 H24           -5.9313     1.1835    -0.5637 H       
  25 H25           -5.6934    -2.1900     0.8255 H       
  26 H26           -6.8345    -0.8240     0.8337 H       
  27 H27           -6.1227    -1.3799    -0.7002 H       
  28 H28            0.2740    -2.7530    -1.7071 H       
  29 H29           -0.2750    -5.2200    -1.0136 H       
  30 H30           -2.5059    -2.7406     1.6056 H       
@<TRIPOS>BOND
   1    1    2 ar
   2    1   14 1
   3    1    6 ar
   4    2    3 ar
   5    2   20 1
   6    3    4 ar
   7    3   15 1
   8    4    5 ar
   9    4    7 1
  10    5    6 ar
  11    5   10 1
  12    6   21 1
  13    7    8 1
  14    7   22 1
  15    8    9 1
  16    8   13 1
  17    8   23 1
  18    9   10 am
  19    9   24 1
  20   10   11 2
  21   10   12 2
  22   13   25 1
  23   13   26 1
  24   13   27 1
  25   15   16 1
  26   15   19 2
  27   16   17 2
  28   16   28 1
  29   17   18 1
  30   17   29 1
  31   18   19 1
  32   19   30 1

#	End of record

