#	Name: ASD01810293
#	Creating user name:	WinNT
#	Creation time:	15. 06. 2019 19:24

#	Modifying user name:	WinNT
#	Modification time:	15. 06. 2019 19:24

#	Program:	/corina/corina34_cracker 3.40 0067  02.08.2006

@<TRIPOS>MOLECULE
ASD01810293
  48   51    0    0    0
SMALL
NO_CHARGES


@<TRIPOS>ATOM
   1 C1            -0.0167     1.3820     0.0096 C.ar    
   2 C2             0.0021    -0.0041     0.0020 C.ar    
   3 C3             1.1959    -0.6932    -0.0127 C.ar    
   4 C4             2.4016     0.0019    -0.0200 C.ar    
   5 C5             2.3831     1.4075    -0.0128 C.ar    
   6 C6             1.1665     2.0939     0.0022 C.ar    
   7 N7             3.6010    -0.6771    -0.0337 N.pl3   
   8 C8             4.7870    -0.0549    -0.0404 C.2     
   9 C9             4.8957     1.3208    -0.0340 C.2     
  10 C10            3.6667     2.1313    -0.0207 C.2     
  11 O11            3.7091     3.3491    -0.0150 O.2     
  12 C12            3.5775    -2.1419    -0.0409 C.3     
  13 C13            3.5572    -2.6371    -1.4640 C.ar    
  14 C14            4.7472    -2.8827    -2.1252 C.ar    
  15 C15            4.7345    -3.3358    -3.4288 C.ar    
  16 C16            3.5200    -3.5463    -4.0787 C.ar    
  17 C17            2.3242    -3.2977    -3.4077 C.ar    
  18 C18            2.3487    -2.8497    -2.1025 C.ar    
  19 C19            3.5000    -4.0328    -5.4801 C.ar    
  20 C20            6.2161     1.9660    -0.0412 C.2     
  21 O21            6.3092     3.3109    -0.0348 O.3     
  22 O22            7.2244     1.2870    -0.0529 O.2     
  23 C23            2.2845    -4.2430    -6.1291 C.ar    
  24 C24            2.2691    -4.6948    -7.4319 C.ar    
  25 C25            3.4627    -4.9408    -8.0970 C.ar    
  26 C26            4.6750    -4.7324    -7.4532 C.ar    
  27 C27            4.6967    -4.2752    -6.1523 C.ar    
  28 O28            3.4444    -5.3868    -9.3803 O.3     
  29 C29            4.7088    -5.6194   -10.0043 C.3     
  30 F30            1.1476     3.4448     0.0091 F       
  31 H31           -0.9604     1.9071     0.0170 H       
  32 H32           -0.9295    -0.5505     0.0080 H       
  33 H33            1.1956    -1.7731    -0.0181 H       
  34 H34            5.6884    -0.6497    -0.0508 H       
  35 H35            4.4660    -2.5220     0.4634 H       
  36 H36            2.6863    -2.4936     0.4789 H       
  37 H37            5.6879    -2.7192    -1.6205 H       
  38 H38            5.6642    -3.5265    -3.9443 H       
  39 H39            1.3801    -3.4588    -3.9067 H       
  40 H40            1.4226    -2.6570    -1.5813 H       
  41 H41            7.1990     3.6894    -0.0400 H       
  42 H42            1.3557    -4.0524    -5.6120 H       
  43 H43            1.3276    -4.8578    -7.9353 H       
  44 H44            5.6019    -4.9249    -7.9729 H       
  45 H45            5.6401    -4.1129    -5.6520 H       
  46 H46            5.2800    -4.6913   -10.0249 H       
  47 H47            5.2592    -6.3724    -9.4404 H       
  48 H48            4.5514    -5.9719   -11.0237 H       
@<TRIPOS>BOND
   1    1    2 ar
   2    1    6 ar
   3    1   31 1
   4    2    3 ar
   5    2   32 1
   6    3    4 ar
   7    3   33 1
   8    4    5 ar
   9    4    7 1
  10    5    6 ar
  11    5   10 1
  12    6   30 1
  13    7    8 1
  14    7   12 1
  15    8    9 2
  16    8   34 1
  17    9   10 1
  18    9   20 1
  19   10   11 2
  20   12   13 1
  21   12   35 1
  22   12   36 1
  23   13   14 ar
  24   13   18 ar
  25   14   15 ar
  26   14   37 1
  27   15   16 ar
  28   15   38 1
  29   16   17 ar
  30   16   19 1
  31   17   18 ar
  32   17   39 1
  33   18   40 1
  34   19   23 ar
  35   19   27 ar
  36   20   21 1
  37   20   22 2
  38   21   41 1
  39   23   24 ar
  40   23   42 1
  41   24   25 ar
  42   24   43 1
  43   25   26 ar
  44   25   28 1
  45   26   27 ar
  46   26   44 1
  47   27   45 1
  48   28   29 1
  49   29   46 1
  50   29   47 1
  51   29   48 1

#	End of record

