#	Name: ASD04882440
#	Creating user name:	WinNT
#	Creation time:	15. 06. 2019 20:54

#	Modifying user name:	WinNT
#	Modification time:	15. 06. 2019 20:54

#	Program:	/corina/corina34_cracker 3.40 0067  02.08.2006

@<TRIPOS>MOLECULE
ASD04882440
  77   81    0    0    0
SMALL
NO_CHARGES


@<TRIPOS>ATOM
   1 C1            -0.0215     1.4011    -0.0092 C.ar    
   2 C2            -0.0115     0.0036    -0.0052 C.ar    
   3 C3            -1.2093    -0.7020    -0.0169 C.ar    
   4 C4            -2.4096    -0.0269    -0.0323 C.ar    
   5 C5            -2.4267     1.3707    -0.0359 C.ar    
   6 C6            -1.2239     2.0824    -0.0184 C.ar    
   7 N7             1.1998    -0.6830     0.0099 N.3     
   8 C8             1.3067    -1.5363     1.2016 C.3     
   9 C9             1.3728    -1.4731    -1.2171 C.3     
  10 C10            2.7466    -2.1473    -1.1972 C.3     
  11 N11            2.8535    -3.0005    -0.0055 N.3     
  12 C12            2.6806    -2.2105     1.2215 C.3     
  13 C13           -3.7126     2.0936    -0.0528 C.2     
  14 O14           -3.7265     3.3095    -0.0559 O.2     
  15 N15           -4.8719     1.4064    -0.0649 N.am    
  16 N16            1.1867     2.1110     0.0021 N.am    
  17 C17            1.2298     3.3600     0.5068 C.2     
  18 C18            2.5164     4.0733     0.6000 C.2     
  19 C19            2.7136     5.3462     1.0967 C.2     
  20 C20            4.0685    -3.6892     0.0097 C.ar    
  21 O21            0.2071     3.8985     0.8853 O.2     
  22 C22            3.7796     3.5800     0.2033 C.2     
  23 N23            4.6678     4.5045     0.4443 N.2     
  24 N24            4.0256     5.6158     1.0019 N.pl3   
  25 C25            4.6752     6.8628     1.4132 C.3     
  26 C26            4.0813    -5.0781     0.0136 C.ar    
  27 C27            5.2847    -5.7560     0.0282 C.ar    
  28 C28            6.4756    -5.0537     0.0393 C.ar    
  29 C29            6.4664    -3.6706     0.0354 C.ar    
  30 C30            5.2671    -2.9866     0.0151 C.ar    
  31 C31            2.7838    -5.8444     0.0026 C.3     
  32 C32           -6.1488     2.1243    -0.0818 C.3     
  33 C33           -7.3002     1.1168    -0.0930 C.3     
  34 C34           -8.6338     1.8665    -0.1106 C.3     
  35 N35           -9.7363     0.9018    -0.1214 N.am    
  36 C36          -10.3205     0.4054     0.9827 C.2     
  37 C37          -10.3489     0.3580    -1.3391 C.3     
  38 C38          -11.1256    -0.8976    -0.8844 C.3     
  39 C39          -11.4128    -0.5688     0.6001 C.3     
  40 O40          -10.0158     0.6957     2.1202 O.2     
  41 H41           -1.1985    -1.7819    -0.0141 H       
  42 H42           -3.3384    -0.5779    -0.0420 H       
  43 H43           -1.2340     3.1624    -0.0211 H       
  44 H44            1.1879    -0.9265     2.0973 H       
  45 H45            0.5280    -2.2984     1.1742 H       
  46 H46            0.5948    -2.2345    -1.2720 H       
  47 H47            1.3020    -0.8173    -2.0849 H       
  48 H48            2.8655    -2.7570    -2.0929 H       
  49 H49            3.5254    -1.3851    -1.1698 H       
  50 H50            3.4586    -1.4490     1.2764 H       
  51 H51            2.7513    -2.8663     2.0893 H       
  52 H52           -4.8608     0.4364    -0.0625 H       
  53 H53            1.9920     1.7035    -0.3534 H       
  54 H54            1.9525     6.0045     1.4888 H       
  55 H55            3.9756     2.6078    -0.2242 H       
  56 H56            4.6896     7.5588     0.5745 H       
  57 H57            4.1222     7.3042     2.2423 H       
  58 H58            5.6972     6.6531     1.7289 H       
  59 H59            5.2953    -6.8360     0.0313 H       
  60 H60            7.4151    -5.5862     0.0513 H       
  61 H61            7.3984    -3.1250     0.0444 H       
  62 H62            5.2606    -1.9066     0.0117 H       
  63 H63            2.4814    -6.0320    -1.0277 H       
  64 H64            2.9183    -6.7941     0.5204 H       
  65 H65            2.0132    -5.2615     0.5070 H       
  66 H66           -6.2243     2.7524     0.8058 H       
  67 H67           -6.2032     2.7481    -0.9740 H       
  68 H68           -7.2248     0.4887    -0.9807 H       
  69 H69           -7.2459     0.4929     0.7992 H       
  70 H70           -8.7093     2.4946     0.7770 H       
  71 H71           -8.6882     2.4903    -1.0028 H       
  72 H72          -11.0321     1.0866    -1.7754 H       
  73 H73           -9.5779     0.0843    -2.0594 H       
  74 H74          -12.0540    -1.0063    -1.4450 H       
  75 H75          -10.5093    -1.7920    -0.9762 H       
  76 H76          -11.3506    -1.4705     1.2095 H       
  77 H77          -12.3928    -0.1032     0.7050 H       
@<TRIPOS>BOND
   1    1    2 ar
   2    1   16 1
   3    1    6 ar
   4    2    3 ar
   5    2    7 1
   6    3    4 ar
   7    3   41 1
   8    4    5 ar
   9    4   42 1
  10    5    6 ar
  11    5   13 1
  12    6   43 1
  13    7    8 1
  14    7    9 1
  15    8   12 1
  16    8   44 1
  17    8   45 1
  18    9   10 1
  19    9   46 1
  20    9   47 1
  21   10   11 1
  22   10   48 1
  23   10   49 1
  24   11   12 1
  25   11   20 1
  26   12   50 1
  27   12   51 1
  28   13   14 2
  29   13   15 am
  30   15   32 1
  31   15   52 1
  32   16   17 am
  33   16   53 1
  34   17   18 1
  35   17   21 2
  36   18   22 1
  37   18   19 2
  38   19   24 1
  39   19   54 1
  40   20   26 ar
  41   20   30 ar
  42   22   23 2
  43   22   55 1
  44   23   24 1
  45   24   25 1
  46   25   56 1
  47   25   57 1
  48   25   58 1
  49   26   27 ar
  50   26   31 1
  51   27   28 ar
  52   27   59 1
  53   28   29 ar
  54   28   60 1
  55   29   30 ar
  56   29   61 1
  57   30   62 1
  58   31   63 1
  59   31   64 1
  60   31   65 1
  61   32   33 1
  62   32   66 1
  63   32   67 1
  64   33   34 1
  65   33   68 1
  66   33   69 1
  67   34   35 1
  68   34   70 1
  69   34   71 1
  70   35   36 am
  71   35   37 1
  72   36   40 2
  73   36   39 1
  74   37   38 1
  75   37   72 1
  76   37   73 1
  77   38   39 1
  78   38   74 1
  79   38   75 1
  80   39   76 1
  81   39   77 1

#	End of record

