#	Name: ASD01912308
#	Creating user name:	WinNT
#	Creation time:	15. 06. 2019 19:59

#	Modifying user name:	WinNT
#	Modification time:	15. 06. 2019 19:59

#	Program:	/corina/corina34_cracker 3.40 0067  02.08.2006

@<TRIPOS>MOLECULE
ASD01912308
  44   46    0    0    0
SMALL
NO_CHARGES


@<TRIPOS>ATOM
   1 C1            -0.1285     1.6221    -1.1901 C.ar    
   2 C2            -0.1102     0.2363    -1.3727 C.ar    
   3 C3             1.1013    -0.3975    -1.5789 C.ar    
   4 C4             2.2578     0.3711    -1.5966 C.ar    
   5 C5             2.1684     1.7384    -1.4093 C.ar    
   6 N6             1.0031     2.3204    -1.2145 N.ar    
   7 C7             3.4222     2.5743    -1.4282 C.3     
   8 C8            -1.3750     2.2953    -0.9813 C.1     
   9 C9            -2.3970     2.8472    -0.8101 C.1     
  10 C10           -3.6435     3.5204    -0.6013 C.2     
  11 N11           -3.6029     7.1935     0.9992 N.am    
  12 C12           -4.8462     6.4151     1.0695 C.3     
  13 C13           -4.9729     5.5708    -0.2049 C.3     
  14 C14           -3.6664     4.8410    -0.4269 C.2     
  15 C15           -2.3864     5.6474    -0.4464 C.3     
  16 C16           -2.3245     6.4899     0.8340 C.3     
  17 C17           -3.6352     8.5385     1.0796 C.2     
  18 C18           -2.3730     9.3061     1.1388 C.ar    
  19 C19           -2.2230    10.4679     0.3800 C.ar    
  20 C20           -1.0421    11.1800     0.4403 C.ar    
  21 C21           -0.0081    10.7437     1.2513 C.ar    
  22 C22           -0.1510     9.5929     2.0052 C.ar    
  23 C23           -1.3286     8.8752     1.9582 C.ar    
  24 O24           -4.7021     9.1204     1.1035 O.2     
  25 Br25          -0.8357    12.7541    -0.5872 Br      
  26 H26           -1.0289    -0.3312    -1.3526 H       
  27 H27            1.1472    -1.4669    -1.7226 H       
  28 H28            3.2191    -0.0951    -1.7551 H       
  29 H29            3.6211     2.9080    -2.4466 H       
  30 H30            3.2907     3.4413    -0.7809 H       
  31 H31            4.2618     1.9781    -1.0707 H       
  32 H32           -4.5651     2.9576    -0.5853 H       
  33 H33           -4.8186     5.7603     1.9405 H       
  34 H34           -5.6972     7.0920     1.1456 H       
  35 H35           -5.7812     4.8489    -0.0879 H       
  36 H36           -5.1801     6.2197    -1.0559 H       
  37 H37           -1.5295     4.9749    -0.4850 H       
  38 H38           -2.3787     6.3027    -1.3175 H       
  39 H39           -1.5153     7.2159     0.7550 H       
  40 H40           -2.1520     5.8393     1.6914 H       
  41 H41           -3.0288    10.8087    -0.2532 H       
  42 H42            0.9140    11.3043     1.2953 H       
  43 H43            0.6595     9.2575     2.6353 H       
  44 H44           -1.4403     7.9794     2.5511 H       
@<TRIPOS>BOND
   1    1    2 ar
   2    1    6 ar
   3    1    8 1
   4    2    3 ar
   5    2   26 1
   6    3    4 ar
   7    3   27 1
   8    4    5 ar
   9    4   28 1
  10    5    6 ar
  11    5    7 1
  12    7   29 1
  13    7   30 1
  14    7   31 1
  15    8    9 3
  16    9   10 1
  17   10   14 2
  18   10   32 1
  19   11   12 1
  20   11   16 1
  21   11   17 am
  22   12   13 1
  23   12   33 1
  24   12   34 1
  25   13   14 1
  26   13   35 1
  27   13   36 1
  28   14   15 1
  29   15   16 1
  30   15   37 1
  31   15   38 1
  32   16   39 1
  33   16   40 1
  34   17   18 1
  35   17   24 2
  36   18   19 ar
  37   18   23 ar
  38   19   20 ar
  39   19   41 1
  40   20   21 ar
  41   20   25 1
  42   21   22 ar
  43   21   42 1
  44   22   23 ar
  45   22   43 1
  46   23   44 1

#	End of record

