#	Name: ASD00120005
#	Creating user name:	WinNT
#	Creation time:	15. 06. 2019 18:31

#	Modifying user name:	WinNT
#	Modification time:	15. 06. 2019 18:31

#	Program:	/corina/corina34_cracker 3.40 0067  02.08.2006

@<TRIPOS>MOLECULE
ASD00120005
  55   56    0    0    0
SMALL
NO_CHARGES


@<TRIPOS>ATOM
   1 C1            -0.4385     2.1331     0.9018 C.3     
   2 C2            -0.5028     0.6570     0.4997 C.3     
   3 C3             0.6041    -0.1126     1.2238 C.3     
   4 N4             1.9107     0.4542     0.8661 N.3     
   5 C5             2.0133     1.8579     1.2851 C.3     
   6 C6             0.9484     2.6864     0.5628 C.3     
   7 C7             3.0046    -0.3457     1.4331 C.3     
   8 C8             4.3262     0.0605     0.7778 C.3     
   9 C9             5.4655    -0.7726     1.3683 C.3     
  10 C10            6.7871    -0.3664     0.7130 C.3     
  11 C11            0.4001    -0.0034     2.7129 C.2     
  12 N12           -0.6942    -0.5439     3.2846 N.am    
  13 C13           -0.9416    -0.3460     4.6475 C.ar    
  14 C14           -1.7789     0.6821     5.0606 C.ar    
  15 C15           -2.0215     0.8746     6.4065 C.ar    
  16 C16           -1.4314     0.0452     7.3425 C.ar    
  17 C17           -0.5972    -0.9794     6.9344 C.ar    
  18 C18           -0.3550    -1.1807     5.5897 C.ar    
  19 C19           -2.4217     1.5870     4.0413 C.3     
  20 C20            0.5542    -2.2976     5.1459 C.3     
  21 O21            1.2206     0.5710     3.3970 O.2     
  22 C22            0.5564    -1.5847     0.8096 C.3     
  23 C23           -1.6245    -1.3388     2.4791 C.3     
  24 H24           -1.1976     2.6929     0.3554 H       
  25 H25           -0.6162     2.2268     1.9731 H       
  26 H26           -1.4734     0.2461     0.7775 H       
  27 H27           -0.3638     0.5670    -0.5777 H       
  28 H28            1.8591     1.9277     2.3619 H       
  29 H29            3.0027     2.2404     1.0345 H       
  30 H30            1.1103     2.6282    -0.5135 H       
  31 H31            1.0146     3.7253     0.8858 H       
  32 H32            3.0631    -0.1714     2.5075 H       
  33 H33            2.8163    -1.4029     1.2462 H       
  34 H34            4.2677    -0.1138    -0.2966 H       
  35 H35            4.5145     1.1177     0.9646 H       
  36 H36            5.5240    -0.5983     2.4427 H       
  37 H37            5.2772    -1.8298     1.1815 H       
  38 H38            6.7285    -0.5407    -0.3614 H       
  39 H39            6.9754     0.6908     0.8999 H       
  40 H40            7.5987    -0.9599     1.1337 H       
  41 H41           -2.6726     1.6739     6.7284 H       
  42 H42           -1.6221     0.1982     8.3944 H       
  43 H43           -0.1377    -1.6255     7.6679 H       
  44 H44           -3.4229     1.2223     3.8116 H       
  45 H45           -2.4866     2.5983     4.4429 H       
  46 H46           -1.8205     1.5951     3.1321 H       
  47 H47           -0.0426    -3.1755     4.8988 H       
  48 H48            1.1161    -1.9812     4.2671 H       
  49 H49            1.2468    -2.5438     5.9507 H       
  50 H50            0.8923    -1.6827    -0.2227 H       
  51 H51            1.2086    -2.1667     1.4607 H       
  52 H52           -0.4657    -1.9534     0.8956 H       
  53 H53           -1.3675    -2.3947     2.5634 H       
  54 H54           -2.6416    -1.1826     2.8388 H       
  55 H55           -1.5568    -1.0305     1.4358 H       
@<TRIPOS>BOND
   1    1    2 1
   2    1    6 1
   3    1   24 1
   4    1   25 1
   5    2    3 1
   6    2   26 1
   7    2   27 1
   8    3    4 1
   9    3   11 1
  10    3   22 1
  11    4    5 1
  12    4    7 1
  13    5    6 1
  14    5   28 1
  15    5   29 1
  16    6   30 1
  17    6   31 1
  18    7    8 1
  19    7   32 1
  20    7   33 1
  21    8    9 1
  22    8   34 1
  23    8   35 1
  24    9   10 1
  25    9   36 1
  26    9   37 1
  27   10   38 1
  28   10   39 1
  29   10   40 1
  30   11   12 am
  31   11   21 2
  32   12   13 1
  33   12   23 1
  34   13   14 ar
  35   13   18 ar
  36   14   15 ar
  37   14   19 1
  38   15   16 ar
  39   15   41 1
  40   16   17 ar
  41   16   42 1
  42   17   18 ar
  43   17   43 1
  44   18   20 1
  45   19   44 1
  46   19   45 1
  47   19   46 1
  48   20   47 1
  49   20   48 1
  50   20   49 1
  51   22   50 1
  52   22   51 1
  53   22   52 1
  54   23   53 1
  55   23   54 1
  56   23   55 1

#	End of record

