#	Name: ASD03740204
#	Creating user name:	WinNT
#	Creation time:	15. 06. 2019 20:46

#	Modifying user name:	WinNT
#	Modification time:	15. 06. 2019 20:46

#	Program:	/corina/corina34_cracker 3.40 0067  02.08.2006

@<TRIPOS>MOLECULE
ASD03740204
  56   62    0    0    0
SMALL
NO_CHARGES


@<TRIPOS>ATOM
   1 C1            -0.0167     1.3782     0.0096 C.ar    
   2 C2             0.0021    -0.0041     0.0020 C.ar    
   3 C3             1.2121    -0.6809    -0.0132 C.ar    
   4 C4             2.4045     0.0293    -0.0213 C.ar    
   5 C5             2.3858     1.4116    -0.0146 C.ar    
   6 C6             1.1757     2.0885     0.0020 C.ar    
   7 O7             1.2306    -2.0408    -0.0198 O.3     
   8 O8             1.1573     3.4484     0.0091 O.3     
   9 C9             2.4216     4.1144     0.0007 C.3     
  10 C10           -0.0337    -2.7069    -0.0103 C.3     
  11 C11            2.2039     5.6056     0.0103 C.2     
  12 C12            0.1840    -4.1980    -0.0195 C.2     
  13 N13            1.9036     7.5921    -0.6739 N.2     
  14 N14            2.0773     6.3706    -1.0377 N.2     
  15 N15            2.0969     6.4041     1.1289 N.pl3   
  16 C16            1.9085     7.6615     0.6332 C.2     
  17 N17            2.1226     6.3151     2.5128 N.2     
  18 C18            1.9711     7.3946     3.2166 C.2     
  19 S19            1.7715     8.7125     2.0480 S.3     
  20 C20            0.4755    -6.2547    -0.6418 C.2     
  21 N21            0.4802    -6.1849     0.6653 N.2     
  22 N22            0.3050    -4.9635     1.0287 N.2     
  23 N23            0.2560    -4.9096    -2.5218 N.2     
  24 C24            0.4068    -5.9894    -3.2252 C.2     
  25 S25            0.6136    -7.3060    -2.0564 S.3     
  26 N26            0.2848    -4.9978    -1.1379 N.pl3   
  27 C27            0.4054    -6.0994    -4.7010 C.ar    
  28 C28            0.5813    -7.3417    -5.3106 C.ar    
  29 C29            0.5787    -7.4385    -6.6867 C.ar    
  30 C30            0.4017    -6.3055    -7.4626 C.ar    
  31 C31            0.2271    -5.0697    -6.8630 C.ar    
  32 C32            0.2223    -4.9620    -5.4876 C.ar    
  33 C33            1.9687     7.5037     4.6925 C.ar    
  34 C34            1.7926     8.7458     5.3023 C.ar    
  35 C35            1.7906     8.8416     6.6785 C.ar    
  36 C36            1.9631     7.7076     7.4542 C.ar    
  37 C37            2.1387     6.4722     6.8542 C.ar    
  38 C38            2.1366     6.3639     5.4789 C.ar    
  39 Cl39           0.3995    -6.4346    -9.1938 Cl      
  40 Cl40           1.9595     7.8355     9.1855 Cl      
  41 Cl41          -1.5317     2.2257     0.0214 Cl      
  42 Cl42           3.9195    -0.8181    -0.0392 Cl      
  43 H43           -0.9258    -0.5567     0.0083 H       
  44 H44            3.3136     1.9643    -0.0202 H       
  45 H45            2.9908     3.8246     0.8839 H       
  46 H46            2.9741     3.8337    -0.8960 H       
  47 H47           -0.5857    -2.4258     0.8865 H       
  48 H48           -0.6035    -2.4174    -0.8933 H       
  49 H49            0.7198    -8.2261    -4.7063 H       
  50 H50            0.7152    -8.3998    -7.1596 H       
  51 H51            0.0902    -4.1891    -7.4730 H       
  52 H52            0.0815    -3.9983    -5.0209 H       
  53 H53            1.6584     9.6309     4.6982 H       
  54 H54            1.6548     9.8028     7.1517 H       
  55 H55            2.2735     5.5911     7.4640 H       
  56 H56            2.2693     5.3991     5.0120 H       
@<TRIPOS>BOND
   1    1    2 ar
   2    1    6 ar
   3    1   41 1
   4    2    3 ar
   5    2   43 1
   6    3    4 ar
   7    3    7 1
   8    4    5 ar
   9    4   42 1
  10    5    6 ar
  11    5   44 1
  12    6    8 1
  13    7   10 1
  14    8    9 1
  15    9   11 1
  16    9   45 1
  17    9   46 1
  18   10   12 1
  19   10   47 1
  20   10   48 1
  21   11   15 1
  22   11   14 2
  23   12   22 2
  24   12   26 1
  25   13   14 1
  26   13   16 2
  27   15   17 1
  28   15   16 1
  29   16   19 1
  30   17   18 2
  31   18   19 1
  32   18   33 1
  33   20   21 2
  34   20   26 1
  35   20   25 1
  36   21   22 1
  37   23   24 2
  38   23   26 1
  39   24   25 1
  40   24   27 1
  41   27   28 ar
  42   27   32 ar
  43   28   29 ar
  44   28   49 1
  45   29   30 ar
  46   29   50 1
  47   30   31 ar
  48   30   39 1
  49   31   32 ar
  50   31   51 1
  51   32   52 1
  52   33   34 ar
  53   33   38 ar
  54   34   35 ar
  55   34   53 1
  56   35   36 ar
  57   35   54 1
  58   36   37 ar
  59   36   40 1
  60   37   38 ar
  61   37   55 1
  62   38   56 1

#	End of record

