#	Name: ASD00311471
#	Creating user name:	WinNT
#	Creation time:	15. 06. 2019 18:34

#	Modifying user name:	WinNT
#	Modification time:	15. 06. 2019 18:34

#	Program:	/corina/corina34_cracker 3.40 0067  02.08.2006

@<TRIPOS>MOLECULE
ASD00311471
  45   49    0    0    0
SMALL
NO_CHARGES


@<TRIPOS>ATOM
   1 C1            -0.0167     1.3780     0.0096 C.2     
   2 C2             0.0021    -0.0041     0.0020 C.2     
   3 C3             1.2582    -0.6767    -0.0136 C.2     
   4 C4             2.4321     0.0678    -0.0208 C.2     
   5 C5             2.3575     1.4765    -0.0126 C.2     
   6 N6             1.1646     2.0909     0.0022 N.am    
   7 C7            -1.3434    -0.5751     0.0123 C.2     
   8 C8            -2.3228     0.3263     0.0268 C.2     
   9 S9            -1.6793     1.9564     0.0358 S.3     
  10 O10            3.3819     2.1390    -0.0188 O.2     
  11 C11            5.8243    -1.1326    -1.1051 C.ar    
  12 C12            4.6085    -0.4838    -1.1325 C.ar    
  13 C13            3.7467    -0.6105    -0.0366 C.ar    
  14 C14            4.1636    -1.3965     1.0443 C.ar    
  15 C15            5.3965    -2.0102     0.9880 C.ar    
  16 N16            6.1788    -1.8644    -0.0652 N.ar    
  17 O17            1.3078    -2.0288    -0.0209 O.3     
  18 C18           -2.0697    -4.7660    -0.0039 C.ar    
  19 C19           -2.7063    -3.9517     0.9325 C.ar    
  20 C20           -2.4711    -2.5948     0.9384 C.ar    
  21 C21           -1.5960    -2.0345     0.0070 C.ar    
  22 C22           -0.9591    -2.8496    -0.9298 C.ar    
  23 C23           -1.1945    -4.2065    -0.9347 C.ar    
  24 C24           -2.3185    -6.2279    -0.0059 C.ar    
  25 C25           -1.6837    -7.0444    -0.9405 C.ar    
  26 C26           -1.9192    -8.4042    -0.9377 C.ar    
  27 C27           -2.7836    -8.9572    -0.0101 C.ar    
  28 C28           -3.4167    -8.1518     0.9195 C.ar    
  29 C29           -3.1837    -6.7916     0.9304 C.ar    
  30 H30            1.1319     3.0603     0.0077 H       
  31 H31           -3.3754     0.0848     0.0359 H       
  32 H32            6.4941    -1.0446    -1.9477 H       
  33 H33            4.3252     0.1136    -1.9865 H       
  34 H34            3.5289    -1.5198     1.9094 H       
  35 H35            5.7270    -2.6186     1.8169 H       
  36 H36            2.2050    -2.3894    -0.0315 H       
  37 H37           -3.3842    -4.3853     1.6529 H       
  38 H38           -2.9644    -1.9643     1.6633 H       
  39 H39           -0.2815    -2.4164    -1.6506 H       
  40 H40           -0.7017    -4.8374    -1.6596 H       
  41 H41           -1.0092    -6.6135    -1.6657 H       
  42 H42           -1.4279    -9.0377    -1.6614 H       
  43 H43           -2.9651   -10.0218    -0.0118 H       
  44 H44           -4.0911    -8.5889     1.6410 H       
  45 H45           -3.6748    -6.1644     1.6597 H       
@<TRIPOS>BOND
   1    1    2 2
   2    1    6 1
   3    1    9 1
   4    2    3 1
   5    2    7 1
   6    3    4 2
   7    3   17 1
   8    4    5 1
   9    4   13 1
  10    5    6 am
  11    5   10 2
  12    6   30 1
  13    7    8 2
  14    7   21 1
  15    8    9 1
  16    8   31 1
  17   11   12 ar
  18   11   16 ar
  19   11   32 1
  20   12   13 ar
  21   12   33 1
  22   13   14 ar
  23   14   15 ar
  24   14   34 1
  25   15   16 ar
  26   15   35 1
  27   17   36 1
  28   18   19 ar
  29   18   23 ar
  30   18   24 1
  31   19   20 ar
  32   19   37 1
  33   20   21 ar
  34   20   38 1
  35   21   22 ar
  36   22   23 ar
  37   22   39 1
  38   23   40 1
  39   24   25 ar
  40   24   29 ar
  41   25   26 ar
  42   25   41 1
  43   26   27 ar
  44   26   42 1
  45   27   28 ar
  46   27   43 1
  47   28   29 ar
  48   28   44 1
  49   29   45 1

#	End of record

