#	Name: ASD09116261
#	Creating user name:	WinNT
#	Creation time:	15. 06. 2019 21:21

#	Modifying user name:	WinNT
#	Modification time:	15. 06. 2019 21:21

#	Program:	/corina/corina34_cracker 3.40 0067  02.08.2006

@<TRIPOS>MOLECULE
ASD09116261
  66   71    0    0    0
SMALL
NO_CHARGES


@<TRIPOS>ATOM
   1 N1            -0.0296     1.4194     0.1495 N.pl3   
   2 N2            -0.0210     0.0207     0.2732 N.2     
   3 C3             1.2667     1.8082     0.1167 C.2     
   4 N4             2.0155     0.7300     0.2130 N.2     
   5 C5             1.2357    -0.3529     0.3077 C.2     
   6 N6             1.7234     3.1081     0.0023 N.pl3   
   7 C7             3.0942     3.3796     0.0964 C.ar    
   8 C8             3.6352     4.4647    -0.5807 C.ar    
   9 C9             4.9865     4.7326    -0.4876 C.ar    
  10 C10            5.8046     3.9169     0.2832 C.ar    
  11 C11            5.2636     2.8318     0.9603 C.ar    
  12 C12            3.9114     2.5671     0.8714 C.ar    
  13 C13           -1.1528     2.2451     0.0699 C.ar    
  14 N14           -1.0707     3.5128     0.4445 N.ar    
  15 N15           -2.0754     4.3140     0.3997 N.ar    
  16 C16           -3.2620     3.9141    -0.0264 C.ar    
  17 C17           -3.4378     2.5935    -0.4605 C.ar    
  18 C18           -2.3626     1.7354    -0.4105 C.ar    
  19 C19           -4.4382     4.8107    -0.0402 C.ar    
  20 C20           -5.6460     4.3533     0.5119 C.ar    
  21 N21           -5.6908     3.0986     1.1097 N.3     
  22 C22           -5.7704     1.9938     0.1557 C.3     
  23 C23           -4.7786     2.1679    -0.9895 C.3     
  24 C24           -4.3676     6.0846    -0.5905 C.ar    
  25 C25           -5.4920     6.8868    -0.6106 C.ar    
  26 C26           -6.6877     6.4265    -0.0873 C.ar    
  27 C27           -6.7682     5.1649     0.4715 C.ar    
  28 N28            1.6866    -1.6673     0.4250 N.pl3   
  29 N29            7.1743     4.1882     0.3772 N.3     
  30 C30            7.8478     3.2063     1.2386 C.3     
  31 C31            7.4083     5.5563     0.8601 C.3     
  32 C32            8.9123     5.8396     0.8730 C.3     
  33 N33            9.5858     4.8577     1.7344 N.3     
  34 C34            9.3518     3.4896     1.2515 C.3     
  35 C35           11.0235     5.1425     1.8331 C.3     
  36 C36           -6.7781     3.0232     2.0945 C.3     
  37 H37            1.0945     3.8321    -0.1431 H       
  38 H38            2.9991     5.0988    -1.1804 H       
  39 H39            5.4073     5.5762    -1.0145 H       
  40 H40            5.8998     2.1975     1.5597 H       
  41 H41            3.4905     1.7234     1.3982 H       
  42 H42           -2.4524     0.7055    -0.7230 H       
  43 H43           -5.5547     1.0597     0.6743 H       
  44 H44           -6.7802     1.9479    -0.2521 H       
  45 H45           -5.1519     2.9261    -1.6778 H       
  46 H46           -4.6727     1.2225    -1.5216 H       
  47 H47           -3.4367     6.4463    -1.0017 H       
  48 H48           -5.4377     7.8779    -1.0363 H       
  49 H49           -7.5638     7.0574    -0.1159 H       
  50 H50           -7.7051     4.8122     0.8768 H       
  51 H51            2.6383    -1.8539     0.4426 H       
  52 H52            1.0484    -2.3951     0.4888 H       
  53 H53            7.4547     3.2820     2.2525 H       
  54 H54            7.6701     2.2023     0.8534 H       
  55 H55            6.9104     6.2655     0.1989 H       
  56 H56            7.0103     5.6586     1.8697 H       
  57 H57            9.3054     5.7640    -0.1408 H       
  58 H58            9.0900     6.8437     1.2583 H       
  59 H59            9.8497     2.7805     1.9127 H       
  60 H60            9.7498     3.3873     0.2420 H       
  61 H61           11.1689     6.1364     2.2562 H       
  62 H62           11.4975     4.4010     2.4763 H       
  63 H63           11.4711     5.1013     0.8401 H       
  64 H64           -7.7226     3.2771     1.6132 H       
  65 H65           -6.8354     2.0113     2.4958 H       
  66 H66           -6.5833     3.7251     2.9053 H       
@<TRIPOS>BOND
   1    1    2 1
   2    1    3 1
   3    1   13 1
   4    2    5 2
   5    3    4 2
   6    3    6 1
   7    4    5 1
   8    5   28 1
   9    6    7 1
  10    6   37 1
  11    7    8 ar
  12    7   12 ar
  13    8    9 ar
  14    8   38 1
  15    9   10 ar
  16    9   39 1
  17   10   11 ar
  18   10   29 1
  19   11   12 ar
  20   11   40 1
  21   12   41 1
  22   13   14 ar
  23   13   18 ar
  24   14   15 ar
  25   15   16 ar
  26   16   17 ar
  27   16   19 1
  28   17   18 ar
  29   17   23 1
  30   18   42 1
  31   19   20 ar
  32   19   24 ar
  33   20   21 1
  34   20   27 ar
  35   21   22 1
  36   21   36 1
  37   22   23 1
  38   22   43 1
  39   22   44 1
  40   23   45 1
  41   23   46 1
  42   24   25 ar
  43   24   47 1
  44   25   26 ar
  45   25   48 1
  46   26   27 ar
  47   26   49 1
  48   27   50 1
  49   28   51 1
  50   28   52 1
  51   29   30 1
  52   29   31 1
  53   30   34 1
  54   30   53 1
  55   30   54 1
  56   31   32 1
  57   31   55 1
  58   31   56 1
  59   32   33 1
  60   32   57 1
  61   32   58 1
  62   33   34 1
  63   33   35 1
  64   34   59 1
  65   34   60 1
  66   35   61 1
  67   35   62 1
  68   35   63 1
  69   36   64 1
  70   36   65 1
  71   36   66 1

#	End of record

