#	Name: ASD08178065
#	Creating user name:	WinNT
#	Creation time:	15. 06. 2019 21:18

#	Modifying user name:	WinNT
#	Modification time:	15. 06. 2019 21:18

#	Program:	/corina/corina34_cracker 3.40 0067  02.08.2006

@<TRIPOS>MOLECULE
ASD08178065
  64   67    0    0    0
SMALL
NO_CHARGES


@<TRIPOS>ATOM
   1 N1            -0.0150     1.2583     0.0090 N.2     
   2 N2             0.0021    -0.0041     0.0020 N.2     
   3 C3             1.1271     1.8769     0.0014 C.2     
   4 S4             2.3826     0.7116    -0.0169 S.3     
   5 C5             1.1681    -0.5677    -0.0121 C.2     
   6 N6             1.3017     3.2566     0.0067 N.am    
   7 C7             0.2284     4.0717     0.0214 C.2     
   8 O8            -0.8897     3.6019     0.0299 O.2     
   9 C9             1.4387    -2.0502    -0.0227 C.3     
  10 C10            1.5165    -2.5442    -1.4687 C.3     
  11 C11            1.7912    -4.0493    -1.4794 C.3     
  12 C12            1.8690    -4.5432    -2.9254 C.3     
  13 C13            2.1395    -6.0257    -2.9359 C.2     
  14 N14            1.2478    -6.9651    -2.9329 N.2     
  15 S15            3.7275    -6.7933    -2.9623 S.3     
  16 C16            2.9647    -8.3272    -2.9581 C.2     
  17 N17            1.6777    -8.1521    -2.9433 N.2     
  18 N18            3.6154    -9.5562    -2.9730 N.am    
  19 C19            2.8993   -10.6980    -2.9678 C.2     
  20 O20            1.6874   -10.6536    -2.9501 O.2     
  21 C21            3.6044   -12.0297    -2.9839 C.3     
  22 C22            0.4176     5.5667     0.0272 C.3     
  23 C23           -0.9494     6.2538     0.0441 C.3     
  24 C24            2.5684   -13.1555    -2.9740 C.3     
  25 C25           -0.7723     7.7766     0.1761 C.3     
  26 C26           -1.4018     8.4044    -1.0846 C.3     
  27 C27           -2.4188     7.3420    -1.5707 C.3     
  28 C28           -1.6802     6.0093    -1.2923 C.3     
  29 C29            3.2692   -14.5180    -3.1162 C.3     
  30 C30            2.9298   -15.3230    -1.8447 C.3     
  31 C31            1.6139   -14.6867    -1.3323 C.3     
  32 C32            1.8276   -13.1801    -1.6210 C.3     
  33 H33            2.1959     3.6323    -0.0001 H       
  34 H34            2.3843    -2.2506     0.4811 H       
  35 H35            0.6334    -2.5702     0.4961 H       
  36 H36            0.5709    -2.3438    -1.9724 H       
  37 H37            2.3218    -2.0242    -1.9874 H       
  38 H38            2.7368    -4.2496    -0.9756 H       
  39 H39            0.9858    -4.5693    -0.9606 H       
  40 H40            0.9234    -4.3429    -3.4291 H       
  41 H41            2.6743    -4.0232    -3.4441 H       
  42 H42            4.5846    -9.5917    -2.9871 H       
  43 H43            4.2156   -12.1064    -3.8831 H       
  44 H44            4.2413   -12.1143    -2.1034 H       
  45 H45            0.9817     5.8582     0.9132 H       
  46 H46            0.9643     5.8672    -0.8667 H       
  47 H47           -1.5475     5.8742     0.8725 H       
  48 H48            1.8568   -13.0149    -3.7876 H       
  49 H49           -1.2853     8.1361     1.0681 H       
  50 H50            0.2874     8.0262     0.2281 H       
  51 H51           -1.9121     9.3342    -0.8336 H       
  52 H52           -0.6402     8.5792    -1.8446 H       
  53 H53           -3.3424     7.3994    -0.9947 H       
  54 H54           -2.6188     7.4576    -2.6359 H       
  55 H55           -0.9636     5.7973    -2.0858 H       
  56 H56           -2.3937     5.1913    -1.1928 H       
  57 H57            2.8970   -15.0390    -3.9983 H       
  58 H58            4.3473   -14.3772    -3.1923 H       
  59 H59            2.7756   -16.3741    -2.0885 H       
  60 H60            3.7204   -15.2146    -1.1022 H       
  61 H61            0.7578   -15.0689    -1.8883 H       
  62 H62            1.4909   -14.8615    -0.2634 H       
  63 H63            2.4402   -12.7256    -0.8424 H       
  64 H64            0.8691   -12.6673    -1.7015 H       
@<TRIPOS>BOND
   1    1    2 1
   2    1    3 2
   3    2    5 2
   4    3    4 1
   5    3    6 1
   6    4    5 1
   7    5    9 1
   8    6    7 am
   9    6   33 1
  10    7    8 2
  11    7   22 1
  12    9   10 1
  13    9   34 1
  14    9   35 1
  15   10   11 1
  16   10   36 1
  17   10   37 1
  18   11   12 1
  19   11   38 1
  20   11   39 1
  21   12   13 1
  22   12   40 1
  23   12   41 1
  24   13   14 2
  25   13   15 1
  26   14   17 1
  27   15   16 1
  28   16   17 2
  29   16   18 1
  30   18   19 am
  31   18   42 1
  32   19   20 2
  33   19   21 1
  34   21   24 1
  35   21   43 1
  36   21   44 1
  37   22   23 1
  38   22   45 1
  39   22   46 1
  40   23   25 1
  41   23   28 1
  42   23   47 1
  43   24   29 1
  44   24   32 1
  45   24   48 1
  46   25   26 1
  47   25   49 1
  48   25   50 1
  49   26   27 1
  50   26   51 1
  51   26   52 1
  52   27   28 1
  53   27   53 1
  54   27   54 1
  55   28   55 1
  56   28   56 1
  57   29   30 1
  58   29   57 1
  59   29   58 1
  60   30   31 1
  61   30   59 1
  62   30   60 1
  63   31   32 1
  64   31   61 1
  65   31   62 1
  66   32   63 1
  67   32   64 1

#	End of record

