#	Name: ASD01841016
#	Creating user name:	WinNT
#	Creation time:	15. 06. 2019 19:38

#	Modifying user name:	WinNT
#	Modification time:	15. 06. 2019 19:38

#	Program:	/corina/corina34_cracker 3.40 0067  02.08.2006

@<TRIPOS>MOLECULE
ASD01841016
  70   73    0    0    0
SMALL
NO_CHARGES


@<TRIPOS>ATOM
   1 N1            -0.0178     1.4648     0.0101 N.4     
   2 C2             0.0021    -0.0041     0.0020 C.3     
   3 C3            -1.4266    -0.5342     0.1385 C.3     
   4 C4            -1.4059    -2.0641     0.1301 C.3     
   5 C5            -2.8346    -2.5943     0.2667 C.3     
   6 C6            -2.8040    -4.0965     0.3818 C.ar    
   7 C7            -3.4719    -2.0087     1.5003 C.ar    
   8 O8            -3.5935    -2.2201    -0.8849 O.3     
   9 C9            -3.8639    -4.8477    -0.0907 C.ar    
  10 C10           -3.8360    -6.2257     0.0150 C.ar    
  11 C11           -2.7478    -6.8526     0.5928 C.ar    
  12 C12           -1.6875    -6.1015     1.0645 C.ar    
  13 C13           -1.7136    -4.7238     0.9549 C.ar    
  14 C14           -4.8382    -1.8023     1.5408 C.ar    
  15 C15           -5.4228    -1.2652     2.6724 C.ar    
  16 C16           -4.6412    -0.9349     3.7638 C.ar    
  17 C17           -3.2751    -1.1422     3.7236 C.ar    
  18 C18           -2.6910    -1.6833     2.5936 C.ar    
  19 C19            1.3597     1.9714    -0.0003 C.3     
  20 C20            1.3462     3.4988     0.0898 C.3     
  21 C21            0.5820     4.0687    -1.1087 C.3     
  22 C22           -0.8299     3.4760    -1.1300 C.3     
  23 C23           -0.7357     1.9494    -1.1749 C.3     
  24 C24            0.4960     5.5912    -0.9837 C.3     
  25 C25            1.9080     6.1830    -0.9525 C.3     
  26 C26            1.8144     7.7097    -0.9076 C.3     
  27 N27            1.1050     8.1952    -2.0974 N.4     
  28 C28           -0.2729     7.6894    -2.0966 C.3     
  29 C29           -0.2596     6.1619    -2.1873 C.3     
  30 C30            1.0858     9.6640    -2.0889 C.3     
  31 H31           -0.4881     1.7892     0.8418 H       
  32 H32            0.4324    -0.3564    -0.9354 H       
  33 H33            0.6044    -0.3639     0.8362 H       
  34 H34           -1.8569    -0.1819     1.0760 H       
  35 H35           -2.0289    -0.1745    -0.6956 H       
  36 H36           -0.9756    -2.4165    -0.8073 H       
  37 H37           -0.8035    -2.4239     0.9643 H       
  38 H38           -3.2403    -2.5630    -1.7172 H       
  39 H39           -4.7141    -4.3579    -0.5421 H       
  40 H40           -4.6644    -6.8125    -0.3536 H       
  41 H41           -2.7263    -7.9292     0.6760 H       
  42 H42           -0.8375    -6.5913     1.5162 H       
  43 H43           -0.8852    -4.1370     1.3234 H       
  44 H44           -5.4488    -2.0603     0.6882 H       
  45 H45           -6.4901    -1.1032     2.7038 H       
  46 H46           -5.0979    -0.5146     4.6476 H       
  47 H47           -2.6644    -0.8838     4.5761 H       
  48 H48           -1.6237    -1.8453     2.5622 H       
  49 H49            1.9032     1.5624     0.8514 H       
  50 H50            1.8514     1.6667    -0.9242 H       
  51 H51            0.8549     3.8046     1.0135 H       
  52 H52            2.3699     3.8731     0.0801 H       
  53 H53            1.1014     3.8063    -2.0304 H       
  54 H54           -1.3664     3.7813    -0.2316 H       
  55 H55           -1.3617     3.8340    -2.0116 H       
  56 H56           -0.1994     1.6452    -2.0737 H       
  57 H57           -1.7393     1.5242    -1.1903 H       
  58 H58           -0.0291     5.8523    -0.0649 H       
  59 H59            2.4335     5.8244    -0.0674 H       
  60 H60            2.4505     5.8778    -1.8473 H       
  61 H61            1.2721     8.0138    -0.0124 H       
  62 H62            2.8181     8.1343    -0.8851 H       
  63 H63            1.5804     7.8718    -2.9265 H       
  64 H64           -0.7708     7.9939    -1.1761 H       
  65 H65           -0.8103     8.0990    -2.9519 H       
  66 H66            0.2378     5.8562    -3.1077 H       
  67 H67           -1.2836     5.7882    -2.1848 H       
  68 H68            2.1086    10.0408    -2.0961 H       
  69 H69            0.5592    10.0257    -2.9720 H       
  70 H70            0.5755    10.0156    -1.1922 H       
@<TRIPOS>BOND
   1    1    2 1
   2    1   19 1
   3    1   23 1
   4    1   31 1
   5    2    3 1
   6    2   32 1
   7    2   33 1
   8    3    4 1
   9    3   34 1
  10    3   35 1
  11    4    5 1
  12    4   36 1
  13    4   37 1
  14    5    6 1
  15    5    7 1
  16    5    8 1
  17    6    9 ar
  18    6   13 ar
  19    7   14 ar
  20    7   18 ar
  21    8   38 1
  22    9   10 ar
  23    9   39 1
  24   10   11 ar
  25   10   40 1
  26   11   12 ar
  27   11   41 1
  28   12   13 ar
  29   12   42 1
  30   13   43 1
  31   14   15 ar
  32   14   44 1
  33   15   16 ar
  34   15   45 1
  35   16   17 ar
  36   16   46 1
  37   17   18 ar
  38   17   47 1
  39   18   48 1
  40   19   20 1
  41   19   49 1
  42   19   50 1
  43   20   21 1
  44   20   51 1
  45   20   52 1
  46   21   22 1
  47   21   24 1
  48   21   53 1
  49   22   23 1
  50   22   54 1
  51   22   55 1
  52   23   56 1
  53   23   57 1
  54   24   25 1
  55   24   29 1
  56   24   58 1
  57   25   26 1
  58   25   59 1
  59   25   60 1
  60   26   27 1
  61   26   61 1
  62   26   62 1
  63   27   28 1
  64   27   30 1
  65   27   63 1
  66   28   29 1
  67   28   64 1
  68   28   65 1
  69   29   66 1
  70   29   67 1
  71   30   68 1
  72   30   69 1
  73   30   70 1

#	End of record

