#	Name: ASD01880523
#	Creating user name:	WinNT
#	Creation time:	15. 06. 2019 19:40

#	Modifying user name:	WinNT
#	Modification time:	15. 06. 2019 19:40

#	Program:	/corina/corina34_cracker 3.40 0067  02.08.2006

@<TRIPOS>MOLECULE
ASD01880523
  55   58    0    0    0
SMALL
NO_CHARGES


@<TRIPOS>ATOM
   1 N1             0.0004     1.3136    -0.2014 N.ar    
   2 C2             0.0236    -0.0048    -0.2232 C.ar    
   3 N3             1.1384    -0.6836    -0.0320 N.ar    
   4 C4             2.2870    -0.0609     0.1911 C.ar    
   5 C5             2.3103     1.3197     0.2226 C.ar    
   6 C6             1.1133     2.0082     0.0165 C.ar    
   7 C7             3.5961     2.0646     0.4737 C.3     
   8 O8             4.6351     1.1321     0.7786 O.3     
   9 C9             5.8664     1.6430     1.0326 C.ar    
  10 C10            6.9235     0.7906     1.3364 C.ar    
  11 C11            8.1687     1.3086     1.5926 C.ar    
  12 C12            8.3828     2.6903     1.5504 C.ar    
  13 C13            7.3178     3.5420     1.2444 C.ar    
  14 C14            6.0718     3.0166     0.9834 C.ar    
  15 C15            9.4953     0.6827     1.9442 C.3     
  16 N16           10.4450     1.7914     2.0921 N.am    
  17 C17            9.7990     2.9478     1.8640 C.2     
  18 O18           10.3109     4.0497     1.9096 O.2     
  19 Cl19          -1.4534    -0.8706    -0.5107 Cl      
  20 N20            1.0854     3.3931     0.0383 N.3     
  21 C21           -0.1598     3.8854     0.6438 C.3     
  22 C22           -0.1170     5.4133     0.7215 C.3     
  23 N23            0.0626     5.9650    -0.6287 N.3     
  24 C24            1.3079     5.4727    -1.2343 C.3     
  25 C25            1.2650     3.9448    -1.3119 C.3     
  26 C26            0.0331     7.4335    -0.6056 C.3     
  27 C27           14.1672     1.3823     1.5054 C.3     
  28 C28           12.6855     1.5199     1.1496 C.3     
  29 C29           11.8638     1.6597     2.4327 C.3     
  30 H30            3.1939    -0.6264     0.3467 H       
  31 H31            3.8670     2.6322    -0.4165 H       
  32 H32            3.4626     2.7471     1.3131 H       
  33 H33            6.7645    -0.2771     1.3708 H       
  34 H34            7.4724     4.6103     1.2096 H       
  35 H35            5.2493     3.6752     0.7466 H       
  36 H36            9.4132     0.1322     2.8814 H       
  37 H37            9.8188     0.0163     1.1447 H       
  38 H38           -1.0082     3.5759     0.0334 H       
  39 H39           -0.2640     3.4730     1.6475 H       
  40 H40           -1.0517     5.7823     1.1437 H       
  41 H41            0.7152     5.7221     1.3542 H       
  42 H42            1.4120     5.8851    -2.2379 H       
  43 H43            2.1562     5.7822    -0.6238 H       
  44 H44            2.1997     3.5758    -1.7341 H       
  45 H45            0.4329     3.6360    -1.9446 H       
  46 H46            0.8357     7.8031     0.0325 H       
  47 H47            0.1683     7.8156    -1.6175 H       
  48 H48           -0.9267     7.7715    -0.2148 H       
  49 H49           14.7525     1.2828     0.5913 H       
  50 H50           14.4935     2.2676     2.0512 H       
  51 H51           14.3110     0.4986     2.1270 H       
  52 H52           12.5416     2.4036     0.5280 H       
  53 H53           12.3591     0.6347     0.6038 H       
  54 H54           12.1901     2.5449     2.9785 H       
  55 H55           12.0076     0.7760     3.0543 H       
@<TRIPOS>BOND
   1    1    2 ar
   2    1    6 ar
   3    2    3 ar
   4    2   19 1
   5    3    4 ar
   6    4    5 ar
   7    4   30 1
   8    5    6 ar
   9    5    7 1
  10    6   20 1
  11    7    8 1
  12    7   31 1
  13    7   32 1
  14    8    9 1
  15    9   10 ar
  16    9   14 ar
  17   10   11 ar
  18   10   33 1
  19   11   12 ar
  20   11   15 1
  21   12   13 ar
  22   12   17 1
  23   13   14 ar
  24   13   34 1
  25   14   35 1
  26   15   16 1
  27   15   36 1
  28   15   37 1
  29   16   17 am
  30   16   29 1
  31   17   18 2
  32   20   21 1
  33   20   25 1
  34   21   22 1
  35   21   38 1
  36   21   39 1
  37   22   23 1
  38   22   40 1
  39   22   41 1
  40   23   24 1
  41   23   26 1
  42   24   25 1
  43   24   42 1
  44   24   43 1
  45   25   44 1
  46   25   45 1
  47   26   46 1
  48   26   47 1
  49   26   48 1
  50   27   28 1
  51   27   49 1
  52   27   50 1
  53   27   51 1
  54   28   29 1
  55   28   52 1
  56   28   53 1
  57   29   54 1
  58   29   55 1

#	End of record

