#	Name: ASD01150447
#	Creating user name:	WinNT
#	Creation time:	15. 06. 2019 19:04

#	Modifying user name:	WinNT
#	Modification time:	15. 06. 2019 19:04

#	Program:	/corina/corina34_cracker 3.40 0067  02.08.2006

@<TRIPOS>MOLECULE
ASD01150447
  56   58    0    0    0
SMALL
NO_CHARGES


@<TRIPOS>ATOM
   1 C1             0.0352     0.9530     0.1429 C.ar    
   2 C2             0.1558    -0.2873     0.7376 C.ar    
   3 C3            -0.8667    -1.2120     0.6257 C.ar    
   4 C4            -2.0125    -0.8981    -0.0817 C.ar    
   5 C5            -2.1394     0.3406    -0.6794 C.ar    
   6 C6            -1.1170     1.2735    -0.5641 C.ar    
   7 N7            -1.2422     2.5293    -1.1683 N.am    
   8 C8            -2.2926     3.3107    -0.8613 C.2     
   9 N9            -2.4441     4.5244    -1.4233 N.am    
  10 C10           -1.5342     4.9764    -2.3109 C.2     
  11 C11           -0.3830     4.1266    -2.6510 C.2     
  12 N12           -0.2692     2.9567    -2.0795 N.2     
  13 O13           -1.6644     6.0724    -2.8236 O.2     
  14 C14           -3.5984     5.3550    -1.0711 C.3     
  15 O15           -3.1197     2.9140    -0.0628 O.2     
  16 C16           -3.2504     6.2237     0.1101 C.ar    
  17 C17           -2.7025     7.4768    -0.0913 C.ar    
  18 C18           -2.3831     8.2739     0.9916 C.ar    
  19 C19           -2.6120     7.8176     2.2775 C.ar    
  20 C20           -3.1604     6.5634     2.4785 C.ar    
  21 C21           -3.4845     5.7694     1.3946 C.ar    
  22 O22            0.5504     4.5532    -3.5411 O.3     
  23 C23            1.6373     3.6672    -3.8161 C.3     
  24 Cl24          -2.2106     8.8181     3.6383 Cl      
  25 C25            1.1495     1.9601     0.2659 C.3     
  26 N26            2.1710     1.4497     1.1901 N.3     
  27 C27            3.4338     2.1845     1.0369 C.3     
  28 C28            4.5362     1.4736     1.8244 C.3     
  29 C29            1.6970     1.5016     2.5795 C.3     
  30 O30            4.7761     0.1863     1.2521 O.3     
  31 C31            5.7939    -0.5648     1.9169 C.3     
  32 H32            1.0497    -0.5358     1.2905 H       
  33 H33           -0.7697    -2.1816     1.0915 H       
  34 H34           -2.8090    -1.6224    -0.1672 H       
  35 H35           -3.0343     0.5849    -1.2324 H       
  36 H36           -3.8649     5.9852    -1.9196 H       
  37 H37           -4.4423     4.7144    -0.8150 H       
  38 H38           -2.5235     7.8327    -1.0952 H       
  39 H39           -1.9547     9.2528     0.8341 H       
  40 H40           -3.3393     6.2067     3.4821 H       
  41 H41           -3.9126     4.7904     1.5514 H       
  42 H42            2.3079     4.1288    -4.5410 H       
  43 H43            2.1827     3.4642    -2.8945 H       
  44 H44            1.2504     2.7328    -4.2227 H       
  45 H45            1.5972     2.1280    -0.7136 H       
  46 H46            0.7499     2.8992     0.6487 H       
  47 H47            3.7069     2.2217    -0.0177 H       
  48 H48            3.3123     3.1989     1.4167 H       
  49 H49            5.4508     2.0652     1.7840 H       
  50 H50            4.2242     1.3574     2.8623 H       
  51 H51            0.7527     0.9633     2.6616 H       
  52 H52            2.4367     1.0395     3.2333 H       
  53 H53            1.5497     2.5405     2.8746 H       
  54 H54            6.7345    -0.0155     1.8785 H       
  55 H55            5.5079    -0.7233     2.9567 H       
  56 H56            5.9155    -1.5286     1.4226 H       
@<TRIPOS>BOND
   1    1    2 ar
   2    1   25 1
   3    1    6 ar
   4    2    3 ar
   5    2   32 1
   6    3    4 ar
   7    3   33 1
   8    4    5 ar
   9    4   34 1
  10    5    6 ar
  11    5   35 1
  12    6    7 1
  13    7    8 am
  14    7   12 1
  15    8    9 am
  16    8   15 2
  17    9   10 am
  18    9   14 1
  19   10   11 1
  20   10   13 2
  21   11   12 2
  22   11   22 1
  23   14   16 1
  24   14   36 1
  25   14   37 1
  26   16   17 ar
  27   16   21 ar
  28   17   18 ar
  29   17   38 1
  30   18   19 ar
  31   18   39 1
  32   19   20 ar
  33   19   24 1
  34   20   21 ar
  35   20   40 1
  36   21   41 1
  37   22   23 1
  38   23   42 1
  39   23   43 1
  40   23   44 1
  41   25   26 1
  42   25   45 1
  43   25   46 1
  44   26   27 1
  45   26   29 1
  46   27   28 1
  47   27   47 1
  48   27   48 1
  49   28   30 1
  50   28   49 1
  51   28   50 1
  52   29   51 1
  53   29   52 1
  54   29   53 1
  55   30   31 1
  56   31   54 1
  57   31   55 1
  58   31   56 1

#	End of record

