#	Name: ASD01814208
#	Creating user name:	WinNT
#	Creation time:	15. 06. 2019 19:31

#	Modifying user name:	WinNT
#	Modification time:	15. 06. 2019 19:31

#	Program:	/corina/corina34_cracker 3.40 0067  02.08.2006

@<TRIPOS>MOLECULE
ASD01814208
  41   44    0    0    0
SMALL
NO_CHARGES


@<TRIPOS>ATOM
   1 C1            -0.0167     1.3820     0.0096 C.ar    
   2 C2             0.0021    -0.0041     0.0020 C.ar    
   3 C3             1.1959    -0.6932    -0.0130 C.ar    
   4 C4             2.4016     0.0019    -0.0208 C.ar    
   5 C5             2.3831     1.4075    -0.0131 C.ar    
   6 C6             1.1665     2.0939     0.0022 C.ar    
   7 N7             3.6010    -0.6771    -0.0354 N.pl3   
   8 C8             4.7870    -0.0549    -0.0424 C.2     
   9 C9             4.8957     1.3208    -0.0361 C.2     
  10 C10            3.6667     2.1313    -0.0214 C.2     
  11 C11            6.2161     1.9660    -0.0437 C.2     
  12 O12            6.3092     3.3109    -0.0374 O.3     
  13 O13            7.2243     1.2870    -0.0558 O.2     
  14 O14            3.7090     3.3491    -0.0157 O.2     
  15 C15            3.5775    -2.1419    -0.0430 C.3     
  16 C16            3.5565    -2.6366    -1.4663 C.ar    
  17 C17            4.7527    -2.8814    -2.1262 C.ar    
  18 C18            4.7542    -3.3303    -3.4170 C.ar    
  19 C19            3.5433    -3.5445    -4.0776 C.ar    
  20 C20            2.3278    -3.2979    -3.4131 C.ar    
  21 C21            2.3499    -2.8467    -2.0975 C.ar    
  22 F22            1.1476     3.4448     0.0096 F       
  23 C23            3.1842    -4.0074    -5.4207 C.2     
  24 C24            1.8431    -4.0140    -5.4882 C.2     
  25 N25            1.3141    -3.5927    -4.2969 N.pl3   
  26 Cl26           4.2840    -4.4608    -6.6851 Cl      
  27 C27           -0.1169    -3.4736    -4.0065 C.3     
  28 H28           -0.9604     1.9071     0.0169 H       
  29 H29           -0.9295    -0.5505     0.0083 H       
  30 H30            1.1956    -1.7731    -0.0185 H       
  31 H31            5.6884    -0.6497    -0.0531 H       
  32 H32            7.1990     3.6894    -0.0429 H       
  33 H33            4.4662    -2.5222     0.4608 H       
  34 H34            2.6865    -2.4937     0.4772 H       
  35 H35            5.6898    -2.7155    -1.6157 H       
  36 H36            5.6889    -3.5182    -3.9243 H       
  37 H37            1.4244    -2.6534    -1.5754 H       
  38 H38            1.2671    -4.3075    -6.3534 H       
  39 H39           -0.4841    -4.4147    -3.5972 H       
  40 H40           -0.2753    -2.6755    -3.2813 H       
  41 H41           -0.6560    -3.2421    -4.9252 H       
@<TRIPOS>BOND
   1    1    2 ar
   2    1    6 ar
   3    1   28 1
   4    2    3 ar
   5    2   29 1
   6    3    4 ar
   7    3   30 1
   8    4    5 ar
   9    4    7 1
  10    5    6 ar
  11    5   10 1
  12    6   22 1
  13    7    8 1
  14    7   15 1
  15    8    9 2
  16    8   31 1
  17    9   10 1
  18    9   11 1
  19   10   14 2
  20   11   12 1
  21   11   13 2
  22   12   32 1
  23   15   16 1
  24   15   33 1
  25   15   34 1
  26   16   17 ar
  27   16   21 ar
  28   17   18 ar
  29   17   35 1
  30   18   19 ar
  31   18   36 1
  32   19   20 ar
  33   19   23 1
  34   20   21 ar
  35   20   25 1
  36   21   37 1
  37   23   24 2
  38   23   26 1
  39   24   25 1
  40   24   38 1
  41   25   27 1
  42   27   39 1
  43   27   40 1
  44   27   41 1

#	End of record

