#	Name: ASD02030159
#	Creating user name:	WinNT
#	Creation time:	15. 06. 2019 20:14

#	Modifying user name:	WinNT
#	Modification time:	15. 06. 2019 20:14

#	Program:	/corina/corina34_cracker 3.40 0067  02.08.2006

@<TRIPOS>MOLECULE
ASD02030159
  64   68    0    0    0
SMALL
NO_CHARGES


@<TRIPOS>ATOM
   1 N1            -0.1416     1.4438    -0.8335 N.am    
   2 C2            -0.1617    -0.0231    -0.7458 C.3     
   3 C3            -0.9371    -0.4280     0.5140 C.3     
   4 N4            -2.2135     0.3003     0.5342 N.am    
   5 C5            -2.1933     1.7672     0.4464 C.3     
   6 C6            -1.4176     2.1725    -0.8077 C.3     
   7 C7             1.0265     2.1092    -0.9304 C.2     
   8 C8             2.3057     1.3784    -0.8092 C.2     
   9 N9             3.5038     1.9195    -0.7534 N.2     
  10 N10            2.4498     0.0429    -0.7305 N.2     
  11 C11            3.7312    -0.2051    -0.6342 C.2     
  12 N12            4.3778     0.9784    -0.6497 N.pl3   
  13 O13            1.0280     3.3104    -1.1174 O.2     
  14 C14           -3.3815    -0.3651     0.6311 C.2     
  15 C15           -3.3933    -1.8443     0.6191 C.ar    
  16 O16           -4.4252     0.2502     0.7283 O.2     
  17 C17           -1.1501     3.6787    -0.7816 C.3     
  18 C18           -2.2308     1.8133    -2.0529 C.3     
  19 N19           -2.3077    -2.5093     1.0268 N.ar    
  20 C20            5.7661     1.1549    -0.5680 C.ar    
  21 C21            6.3070     2.4331    -0.5950 C.ar    
  22 C22            7.6751     2.6050    -0.5139 C.ar    
  23 C23            8.5069     1.5033    -0.4056 C.ar    
  24 C24            7.9691     0.2271    -0.3785 C.ar    
  25 C25            6.6016     0.0515    -0.4541 C.ar    
  26 C26            8.2628     3.9923    -0.5436 C.3     
  27 F27            9.8449     1.6733    -0.3268 F       
  28 C28           -2.2469    -3.8216     1.0435 C.ar    
  29 C29           -3.3564    -4.5881     0.6199 C.ar    
  30 C30           -4.5247    -3.9141     0.1809 C.ar    
  31 C31           -4.5288    -2.5072     0.1917 C.ar    
  32 O32           -1.1188    -4.4412     1.4671 O.3     
  33 C33           -0.0359    -3.6056     1.8806 C.3     
  34 C34           -3.3316    -5.9883     0.6220 C.ar    
  35 C35           -4.4284    -6.6818     0.2031 C.ar    
  36 C36           -5.5754    -6.0202    -0.2278 C.ar    
  37 C37           -5.6351    -4.6584    -0.2429 C.ar    
  38 H38           -0.6537    -0.4355    -1.6266 H       
  39 H39            0.8592    -0.3999    -0.6838 H       
  40 H40           -1.1284    -1.5010     0.4967 H       
  41 H41           -0.3557    -0.1719     1.3996 H       
  42 H42           -3.2143     2.1440     0.3845 H       
  43 H43           -1.7013     2.1796     1.3273 H       
  44 H44            4.1879    -1.1805    -0.5536 H       
  45 H45           -0.3421     3.8921    -0.0818 H       
  46 H46           -0.8653     4.0144    -1.7787 H       
  47 H47           -2.0522     4.2025    -0.4657 H       
  48 H48           -3.1835     2.3423    -2.0297 H       
  49 H49           -1.6759     2.1031    -2.9453 H       
  50 H50           -2.4122     0.7387    -2.0709 H       
  51 H51            5.6586     3.2926    -0.6798 H       
  52 H52            8.6195    -0.6310    -0.2944 H       
  53 H53            6.1826    -0.9436    -0.4325 H       
  54 H54            8.3374     4.3772     0.4734 H       
  55 H55            9.2555     3.9568    -0.9924 H       
  56 H56            7.6206     4.6464    -1.1334 H       
  57 H57           -5.3985    -1.9563    -0.1346 H       
  58 H58           -0.3570    -2.9802     2.7136 H       
  59 H59            0.8029    -4.2267     2.1948 H       
  60 H60            0.2725    -2.9723     1.0487 H       
  61 H61           -2.4491    -6.5155     0.9531 H       
  62 H62           -4.4070    -7.7616     0.2053 H       
  63 H63           -6.4300    -6.5941    -0.5543 H       
  64 H64           -6.5305    -4.1567    -0.5790 H       
@<TRIPOS>BOND
   1    1    2 1
   2    1    7 am
   3    1    6 1
   4    2    3 1
   5    2   38 1
   6    2   39 1
   7    3    4 1
   8    3   40 1
   9    3   41 1
  10    4    5 1
  11    4   14 am
  12    5    6 1
  13    5   42 1
  14    5   43 1
  15    6   17 1
  16    6   18 1
  17    7    8 1
  18    7   13 2
  19    8    9 2
  20    8   10 1
  21    9   12 1
  22   10   11 2
  23   11   12 1
  24   11   44 1
  25   12   20 1
  26   14   15 1
  27   14   16 2
  28   15   19 ar
  29   15   31 ar
  30   17   45 1
  31   17   46 1
  32   17   47 1
  33   18   48 1
  34   18   49 1
  35   18   50 1
  36   19   28 ar
  37   20   21 ar
  38   20   25 ar
  39   21   22 ar
  40   21   51 1
  41   22   23 ar
  42   22   26 1
  43   23   24 ar
  44   23   27 1
  45   24   25 ar
  46   24   52 1
  47   25   53 1
  48   26   54 1
  49   26   55 1
  50   26   56 1
  51   28   29 ar
  52   28   32 1
  53   29   30 ar
  54   29   34 ar
  55   30   31 ar
  56   30   37 ar
  57   31   57 1
  58   32   33 1
  59   33   58 1
  60   33   59 1
  61   33   60 1
  62   34   35 ar
  63   34   61 1
  64   35   36 ar
  65   35   62 1
  66   36   37 ar
  67   36   63 1
  68   37   64 1

#	End of record

