#	Name: ASD02038630
#	Creating user name:	WinNT
#	Creation time:	15. 06. 2019 20:17

#	Modifying user name:	WinNT
#	Modification time:	15. 06. 2019 20:17

#	Program:	/corina/corina34_cracker 3.40 0067  02.08.2006

@<TRIPOS>MOLECULE
ASD02038630
  60   61    0    0    0
SMALL
NO_CHARGES


@<TRIPOS>ATOM
   1 C1            -0.2634     0.4328     0.3274 C.ar    
   2 C2            -0.3045    -0.9424     0.1702 C.ar    
   3 C3            -1.5205    -1.5893     0.0527 C.ar    
   4 C4            -2.7006    -0.8586     0.0925 C.ar    
   5 C5            -2.6558     0.5209     0.2504 C.ar    
   6 C6            -1.4386     1.1618     0.3726 C.ar    
   7 N7            -3.9313    -1.5098    -0.0264 N.pl3   
   8 C8            -5.1756    -0.7377     0.0158 C.3     
   9 C9            -6.3684    -1.6840    -0.1353 C.3     
  10 N10           -7.6127    -0.9119    -0.0931 N.am    
  11 C11           -8.1427    -0.4251    -1.2327 C.2     
  12 C12           -9.4227     0.3692    -1.1893 C.3     
  13 C13           -9.8035     0.8006    -2.6069 C.3     
  14 C14          -11.0835     1.5949    -2.5635 C.ar    
  15 C15          -11.0383     2.9680    -2.4059 C.ar    
  16 C16          -12.3003     0.9496    -2.6870 C.ar    
  17 C17          -13.4751     1.6743    -2.6477 C.ar    
  18 C18          -13.4336     3.0531    -2.4838 C.ar    
  19 C19          -12.2094     3.6988    -2.3657 C.ar    
  20 Cl20           1.1718    -1.8544     0.1200 Cl      
  21 O21           -7.5895    -0.6262    -2.2931 O.2     
  22 Cl22           1.2650     1.2427     0.4753 Cl      
  23 C23           -8.2809    -0.6689     1.1878 C.3     
  24 C24           -7.7540     0.6307     1.7995 C.3     
  25 C25           -8.4518     0.8844     3.1372 C.3     
  26 C26           -7.9249     2.1841     3.7489 C.3     
  27 N27          -14.6200     3.7893    -2.4436 N.am    
  28 S28          -15.5717     3.7526    -1.0889 S.o2    
  29 O29          -16.6572     4.6153    -1.3998 O.2     
  30 O30          -15.7823     2.3684    -0.8460 O.2     
  31 C31          -14.5354     4.4767     0.2120 C.3     
  32 H32           -1.5526    -2.6618    -0.0703 H       
  33 H33           -3.5723     1.0913     0.2813 H       
  34 H34           -1.4037     2.2342     0.4957 H       
  35 H35           -3.9617    -2.4730    -0.1369 H       
  36 H36           -5.2460    -0.2138     0.9690 H       
  37 H37           -5.1814    -0.0130    -0.7984 H       
  38 H38           -6.2980    -2.2079    -1.0885 H       
  39 H39           -6.3627    -2.4086     0.6789 H       
  40 H40          -10.2186    -0.2470    -0.7709 H       
  41 H41           -9.2813     1.2523    -0.5663 H       
  42 H42           -9.0076     1.4168    -3.0253 H       
  43 H43           -9.9448    -0.0826    -3.2299 H       
  44 H44          -10.0862     3.4693    -2.3138 H       
  45 H45          -12.3318    -0.1224    -2.8148 H       
  46 H46          -14.4251     1.1698    -2.7446 H       
  47 H47          -12.1736     4.7707    -2.2378 H       
  48 H48           -9.3557    -0.5851     1.0267 H       
  49 H49           -8.0787    -1.4979     1.8660 H       
  50 H50           -6.6792     0.5469     1.9605 H       
  51 H51           -7.9562     1.4597     1.1212 H       
  52 H52           -9.5266     0.9683     2.9762 H       
  53 H53           -8.2496     0.0555     3.8155 H       
  54 H54           -8.4221     2.3648     4.7019 H       
  55 H55           -6.8501     2.1003     3.9099 H       
  56 H56           -8.1271     3.0130     3.0706 H       
  57 H57          -14.8864     4.3220    -3.2092 H       
  58 H58          -14.1884     5.4601    -0.1052 H       
  59 H59          -15.1181     4.5751     1.1280 H       
  60 H60          -13.6772     3.8301     0.3950 H       
@<TRIPOS>BOND
   1    1    2 ar
   2    1   22 1
   3    1    6 ar
   4    2    3 ar
   5    2   20 1
   6    3    4 ar
   7    3   32 1
   8    4    5 ar
   9    4    7 1
  10    5    6 ar
  11    5   33 1
  12    6   34 1
  13    7    8 1
  14    7   35 1
  15    8    9 1
  16    8   36 1
  17    8   37 1
  18    9   10 1
  19    9   38 1
  20    9   39 1
  21   10   11 am
  22   10   23 1
  23   11   12 1
  24   11   21 2
  25   12   13 1
  26   12   40 1
  27   12   41 1
  28   13   14 1
  29   13   42 1
  30   13   43 1
  31   14   15 ar
  32   14   16 ar
  33   15   19 ar
  34   15   44 1
  35   16   17 ar
  36   16   45 1
  37   17   18 ar
  38   17   46 1
  39   18   19 ar
  40   18   27 1
  41   19   47 1
  42   23   24 1
  43   23   48 1
  44   23   49 1
  45   24   25 1
  46   24   50 1
  47   24   51 1
  48   25   26 1
  49   25   52 1
  50   25   53 1
  51   26   54 1
  52   26   55 1
  53   26   56 1
  54   27   28 am
  55   27   57 1
  56   28   29 2
  57   28   30 2
  58   28   31 1
  59   31   58 1
  60   31   59 1
  61   31   60 1

#	End of record

