#	Name: ASD03240765
#	Creating user name:	WinNT
#	Creation time:	15. 06. 2019 20:35

#	Modifying user name:	WinNT
#	Modification time:	15. 06. 2019 20:35

#	Program:	/corina/corina34_cracker 3.40 0067  02.08.2006

@<TRIPOS>MOLECULE
ASD03240765
  70   75    0    0    0
SMALL
NO_CHARGES


@<TRIPOS>ATOM
   1 C1            -0.0184     1.5028     0.0103 C.2     
   2 N2             1.3897    -0.4735    -0.0138 N.am    
   3 C3             0.0021    -0.0041     0.0020 C.3     
   4 O4             1.0197     2.1211     0.0037 O.2     
   5 O5            -1.1898     2.1580     0.0194 O.3     
   6 C6             1.6539    -1.7951    -0.0234 C.2     
   7 O7             0.7429    -2.5957    -0.0190 O.2     
   8 N8             5.1803    -3.7698    -1.3464 N.3     
   9 C9             4.5533    -4.2930    -0.1260 C.3     
  10 C10            3.1035    -3.8091    -0.0480 C.3     
  11 C11            3.0814    -2.2781    -0.0396 C.3     
  12 C12            3.7831    -1.7584    -1.2974 C.3     
  13 C13            5.2132    -2.3017    -1.3391 C.3     
  14 C14            6.5282    -4.3257    -1.5256 C.3     
  15 C15            7.0417    -3.9663    -2.8961 C.ar    
  16 C16            7.7514    -2.7930    -3.0800 C.ar    
  17 C17            8.2245    -2.4587    -4.3323 C.ar    
  18 C18            7.9860    -3.3064    -5.4140 C.ar    
  19 C19            7.2698    -4.4880    -5.2221 C.ar    
  20 C20            6.8064    -4.8138    -3.9640 C.ar    
  21 C21            9.4555     0.3584    -9.9429 C.2     
  22 N22            9.8908    -0.5592   -10.8245 N.2     
  23 C23            9.8977    -1.8379   -10.5486 C.2     
  24 C24            9.4188    -2.2851    -9.2424 C.ar    
  25 C25            8.9629    -1.3172    -8.3218 C.ar    
  26 N26            8.9929     0.0106    -8.7027 N.pl3   
  27 C27            9.4019    -3.6382    -8.8888 C.ar    
  28 C28            8.9288    -3.9754    -7.6247 C.ar    
  29 C29            8.4905    -2.9533    -6.7607 C.ar    
  30 N30            8.5218    -1.6816    -7.1307 N.ar    
  31 N31            8.6203     1.1855    -8.0387 N.2     
  32 C32            8.8423     2.2071    -8.8305 C.2     
  33 C33            9.3588     1.7404   -10.0327 C.2     
  34 C34            8.8861    -5.3930    -7.1927 C.ar    
  35 C35            8.3036    -6.3573    -8.0137 C.ar    
  36 C36            8.2671    -7.6755    -7.6066 C.ar    
  37 C37            8.8068    -8.0404    -6.3863 C.ar    
  38 C38            9.3857    -7.0878    -5.5673 C.ar    
  39 C39            9.4335    -5.7677    -5.9667 C.ar    
  40 C40            8.5753     3.6514    -8.4933 C.3     
  41 H41            2.1184     0.1668    -0.0173 H       
  42 H42           -0.4983    -0.3791     0.8948 H       
  43 H43           -0.5153    -0.3696    -0.8850 H       
  44 H44           -1.1523     3.1243     0.0245 H       
  45 H45            4.5718    -5.3826    -0.1466 H       
  46 H46            5.1023    -3.9370     0.7457 H       
  47 H47            2.5503    -4.1763    -0.9125 H       
  48 H48            2.6431    -4.1847     0.8658 H       
  49 H49            3.6001    -1.9111     0.8460 H       
  50 H50            3.2406    -2.0933    -2.1815 H       
  51 H51            3.8083    -0.6689    -1.2762 H       
  52 H52            5.7592    -1.9551    -0.4617 H       
  53 H53            5.7110    -1.9451    -2.2408 H       
  54 H54            7.1949    -3.9134    -0.7682 H       
  55 H55            6.4903    -5.4103    -1.4247 H       
  56 H56            7.9351    -2.1373    -2.2418 H       
  57 H57            8.7780    -1.5423    -4.4747 H       
  58 H58            7.0817    -5.1482    -6.0559 H       
  59 H59            6.2554    -5.7304    -3.8133 H       
  60 H60           10.2526    -2.5530   -11.2760 H       
  61 H61            9.7449    -4.3976    -9.5759 H       
  62 H62            9.6369     2.3444   -10.8837 H       
  63 H63            7.8813    -6.0734    -8.9663 H       
  64 H64            7.8161    -8.4234    -8.2418 H       
  65 H65            8.7757    -9.0731    -6.0717 H       
  66 H66            9.8052    -7.3784    -4.6155 H       
  67 H67            9.8897    -5.0254    -5.3284 H       
  68 H68            9.4622     4.0870    -8.0332 H       
  69 H69            8.3328     4.1984    -9.4044 H       
  70 H70            7.7378     3.7135    -7.7984 H       
@<TRIPOS>BOND
   1    1    3 1
   2    1    4 2
   3    1    5 1
   4    2    3 1
   5    2    6 am
   6    2   41 1
   7    3   42 1
   8    3   43 1
   9    5   44 1
  10    6    7 2
  11    6   11 1
  12    8    9 1
  13    8   13 1
  14    8   14 1
  15    9   10 1
  16    9   45 1
  17    9   46 1
  18   10   11 1
  19   10   47 1
  20   10   48 1
  21   11   12 1
  22   11   49 1
  23   12   13 1
  24   12   50 1
  25   12   51 1
  26   13   52 1
  27   13   53 1
  28   14   15 1
  29   14   54 1
  30   14   55 1
  31   15   16 ar
  32   15   20 ar
  33   16   17 ar
  34   16   56 1
  35   17   18 ar
  36   17   57 1
  37   18   19 ar
  38   18   29 1
  39   19   20 ar
  40   19   58 1
  41   20   59 1
  42   21   22 1
  43   21   26 1
  44   21   33 2
  45   22   23 2
  46   23   24 1
  47   23   60 1
  48   24   25 ar
  49   24   27 ar
  50   25   26 1
  51   25   30 ar
  52   26   31 1
  53   27   28 ar
  54   27   61 1
  55   28   29 ar
  56   28   34 1
  57   29   30 ar
  58   31   32 2
  59   32   33 1
  60   32   40 1
  61   33   62 1
  62   34   35 ar
  63   34   39 ar
  64   35   36 ar
  65   35   63 1
  66   36   37 ar
  67   36   64 1
  68   37   38 ar
  69   37   65 1
  70   38   39 ar
  71   38   66 1
  72   39   67 1
  73   40   68 1
  74   40   69 1
  75   40   70 1

#	End of record

