#	Name: ASD01208873
#	Creating user name:	WinNT
#	Creation time:	15. 06. 2019 19:10

#	Modifying user name:	WinNT
#	Modification time:	15. 06. 2019 19:10

#	Program:	/corina/corina34_cracker 3.40 0067  02.08.2006

@<TRIPOS>MOLECULE
ASD01208873
  58   61    0    0    0
SMALL
NO_CHARGES


@<TRIPOS>ATOM
   1 C1            -0.2601     1.7862     0.5527 C.2     
   2 C2            -0.2290     0.3259     0.3252 C.ar    
   3 C3             0.9388    -0.2864    -0.1319 C.ar    
   4 C4             0.9637    -1.6548    -0.3438 C.ar    
   5 C5            -0.1704    -2.4169    -0.1027 C.ar    
   6 C6            -1.3336    -1.8124     0.3518 C.ar    
   7 C7            -1.3653    -0.4449     0.5724 C.ar    
   8 O8             0.7325     2.4555     0.3415 O.2     
   9 N9            -1.3905     2.3763     0.9889 N.am    
  10 S10           -2.7806     4.6251     1.7525 S.3     
  11 C11           -1.4197     3.7484     1.2026 C.2     
  12 N12           -0.4189     4.5507     1.0146 N.2     
  13 C13           -0.6226     5.8298     1.2686 C.2     
  14 C14           -1.8541     6.1223     1.6913 C.2     
  15 C15           -2.3634     7.4937     2.0531 C.3     
  16 O16           -2.4417    -2.5633     0.5860 O.3     
  17 C17           -3.4402    -2.5307    -0.3341 C.ar    
  18 C18           -4.6119    -3.2425    -0.1104 C.ar    
  19 C19           -5.6273    -3.2119    -1.0416 C.ar    
  20 C20           -5.4774    -2.4637    -2.2109 C.ar    
  21 C21           -4.2983    -1.7492    -2.4320 C.ar    
  22 C22           -3.2894    -1.7809    -1.4938 C.ar    
  23 O23           -6.5546    -1.7524    -4.3785 O.3     
  24 C24           -6.5636    -2.4286    -3.2122 C.2     
  25 N25           -7.7172    -3.0499    -3.1319 N.2     
  26 N26           -8.4124    -2.7912    -4.1831 N.2     
  27 C27           -7.7364    -2.0013    -4.9694 C.2     
  28 C28           -8.1964    -1.4643    -6.3002 C.3     
  29 O29            2.1005    -2.2519    -0.7890 O.3     
  30 C30            3.1044    -3.9997    -2.1223 C.3     
  31 C31            2.0227    -3.6444    -1.1004 C.3     
  32 C32            2.2356    -4.4646     0.1736 C.3     
  33 O33            4.3939    -3.8152    -1.5347 O.3     
  34 C34            5.4809    -4.1213    -2.4104 C.3     
  35 H35            1.8219     0.3061    -0.3206 H       
  36 H36           -0.1478    -3.4837    -0.2696 H       
  37 H37           -2.2697     0.0243     0.9304 H       
  38 H38           -2.1837     1.8428     1.1536 H       
  39 H39            0.1452     6.5791     1.1443 H       
  40 H40           -3.4058     7.4239     2.3639 H       
  41 H41           -1.7668     7.8988     2.8705 H       
  42 H42           -2.2858     8.1503     1.1866 H       
  43 H43           -4.7272    -3.8210     0.7944 H       
  44 H44           -6.5377    -3.7661    -0.8673 H       
  45 H45           -4.1785    -1.1697    -3.3354 H       
  46 H46           -2.3786    -1.2255    -1.6623 H       
  47 H47           -7.8997    -2.1523    -7.0918 H       
  48 H48           -9.2815    -1.3621    -6.2954 H       
  49 H49           -7.7405    -0.4899    -6.4759 H       
  50 H50            2.9893    -5.0401    -2.4265 H       
  51 H51            3.0067    -3.3532    -2.9945 H       
  52 H52            1.0410    -3.8692    -1.5174 H       
  53 H53            1.4649    -4.2115     0.9017 H       
  54 H54            2.1762    -5.5267    -0.0639 H       
  55 H55            3.2172    -4.2398     0.5906 H       
  56 H56            5.4150    -5.1642    -2.7206 H       
  57 H57            5.4325    -3.4773    -3.2885 H       
  58 H58            6.4243    -3.9559    -1.8901 H       
@<TRIPOS>BOND
   1    1    2 1
   2    1    8 2
   3    1    9 am
   4    2    3 ar
   5    2    7 ar
   6    3    4 ar
   7    3   35 1
   8    4    5 ar
   9    4   29 1
  10    5    6 ar
  11    5   36 1
  12    6    7 ar
  13    6   16 1
  14    7   37 1
  15    9   11 1
  16    9   38 1
  17   10   11 1
  18   10   14 1
  19   11   12 2
  20   12   13 1
  21   13   14 2
  22   13   39 1
  23   14   15 1
  24   15   40 1
  25   15   41 1
  26   15   42 1
  27   16   17 1
  28   17   18 ar
  29   17   22 ar
  30   18   19 ar
  31   18   43 1
  32   19   20 ar
  33   19   44 1
  34   20   21 ar
  35   20   24 1
  36   21   22 ar
  37   21   45 1
  38   22   46 1
  39   23   24 1
  40   23   27 1
  41   24   25 2
  42   25   26 1
  43   26   27 2
  44   27   28 1
  45   28   47 1
  46   28   48 1
  47   28   49 1
  48   29   31 1
  49   30   31 1
  50   30   33 1
  51   30   50 1
  52   30   51 1
  53   31   32 1
  54   31   52 1
  55   32   53 1
  56   32   54 1
  57   32   55 1
  58   33   34 1
  59   34   56 1
  60   34   57 1
  61   34   58 1

#	End of record

