#	Name: ASD01816843
#	Creating user name:	WinNT
#	Creation time:	15. 06. 2019 19:36

#	Modifying user name:	WinNT
#	Modification time:	15. 06. 2019 19:36

#	Program:	/corina/corina34_cracker 3.40 0067  02.08.2006

@<TRIPOS>MOLECULE
ASD01816843
  59   63    0    0    0
SMALL
NO_CHARGES


@<TRIPOS>ATOM
   1 C1            -0.0168     1.3889     0.0097 C.ar    
   2 C2             0.0021    -0.0041     0.0020 C.ar    
   3 C3             1.1794    -0.6886    -0.0124 C.ar    
   4 C4             2.3934     0.0157    -0.0201 C.ar    
   5 C5             2.3803     1.4351    -0.0129 C.ar    
   6 C6             1.1408     2.1077     0.0025 C.ar    
   7 C7             3.6293    -0.6585    -0.0345 C.ar    
   8 C8             4.7719     0.0878    -0.0410 C.ar    
   9 C9             4.6903     1.4886    -0.0333 C.ar    
  10 N10            3.5280     2.1114    -0.0194 N.ar    
  11 C11            5.9395     2.2867    -0.0401 C.2     
  12 N12            5.8790     3.6331    -0.0329 N.am    
  13 O13            7.0180     1.7271    -0.0521 O.2     
  14 C14            7.1135     4.4219    -0.0395 C.3     
  15 C15            7.6007     4.5989    -1.4809 C.3     
  16 C16            6.8435     5.8012     0.5696 C.3     
  17 C17            8.1180     6.6453     0.4866 C.3     
  18 O18            8.5340     6.7447    -0.8769 O.3     
  19 C19            8.8459     5.4895    -1.4847 C.3     
  20 O20            6.4578     5.6520     1.9374 O.3     
  21 C21            3.6889    -2.1643    -0.0420 C.3     
  22 C22            3.5722    -2.6646    -1.4587 C.ar    
  23 C23            4.7116    -2.8456    -2.2217 C.ar    
  24 C24            2.3264    -2.9466    -1.9895 C.ar    
  25 C25            2.2139    -3.4059    -3.2862 C.ar    
  26 C26            3.3578    -3.5849    -4.0608 C.ar    
  27 C27            4.6103    -3.3035    -3.5199 C.ar    
  28 C28            3.2429    -4.0788    -5.4563 C.2     
  29 C29            2.0487    -4.4056    -6.1278 C.2     
  30 C30            4.2743    -4.2929    -6.3233 C.2     
  31 N31            3.7477    -4.7390    -7.4815 N.pl3   
  32 N32            2.3567    -4.8008    -7.3346 N.2     
  33 F33            1.1014     3.4581     0.0097 F       
  34 C34            4.5007    -5.0940    -8.6870 C.3     
  35 H35           -0.9642     1.9075     0.0169 H       
  36 H36           -0.9303    -0.5490     0.0080 H       
  37 H37            1.1789    -1.7686    -0.0175 H       
  38 H38            5.7362    -0.3984    -0.0517 H       
  39 H39            5.0180     4.0798    -0.0233 H       
  40 H40            7.8778     3.9077     0.5432 H       
  41 H41            7.8479     3.6253    -1.9040 H       
  42 H42            6.8163     5.0670    -2.0757 H       
  43 H43            6.0438     6.2935     0.0163 H       
  44 H44            7.9198     7.6425     0.8797 H       
  45 H45            8.9057     6.1730     1.0735 H       
  46 H46            9.6431     5.0020    -0.9236 H       
  47 H47            9.1720     5.6540    -2.5117 H       
  48 H48            6.2710     6.4876     2.3868 H       
  49 H49            4.6379    -2.4925     0.3822 H       
  50 H50            2.8676    -2.5634     0.5531 H       
  51 H51            5.6822    -2.6278    -1.8012 H       
  52 H52            1.4402    -2.8075    -1.3881 H       
  53 H53            1.2408    -3.6265    -3.6995 H       
  54 H54            5.5003    -3.4403    -4.1163 H       
  55 H55            1.0521    -4.3411    -5.7167 H       
  56 H56            5.3228    -4.1335    -6.1189 H       
  57 H57            4.7688    -6.1499    -8.6501 H       
  58 H58            3.8867    -4.9056    -9.5676 H       
  59 H59            5.4070    -4.4907    -8.7401 H       
@<TRIPOS>BOND
   1    1    2 ar
   2    1    6 ar
   3    1   35 1
   4    2    3 ar
   5    2   36 1
   6    3    4 ar
   7    3   37 1
   8    4    5 ar
   9    4    7 ar
  10    5    6 ar
  11    5   10 ar
  12    6   33 1
  13    7    8 ar
  14    7   21 1
  15    8    9 ar
  16    8   38 1
  17    9   10 ar
  18    9   11 1
  19   11   12 am
  20   11   13 2
  21   12   14 1
  22   12   39 1
  23   14   15 1
  24   14   16 1
  25   14   40 1
  26   15   19 1
  27   15   41 1
  28   15   42 1
  29   16   17 1
  30   16   20 1
  31   16   43 1
  32   17   18 1
  33   17   44 1
  34   17   45 1
  35   18   19 1
  36   19   46 1
  37   19   47 1
  38   20   48 1
  39   21   22 1
  40   21   49 1
  41   21   50 1
  42   22   23 ar
  43   22   24 ar
  44   23   27 ar
  45   23   51 1
  46   24   25 ar
  47   24   52 1
  48   25   26 ar
  49   25   53 1
  50   26   27 ar
  51   26   28 1
  52   27   54 1
  53   28   29 1
  54   28   30 2
  55   29   32 2
  56   29   55 1
  57   30   31 1
  58   30   56 1
  59   31   32 1
  60   31   34 1
  61   34   57 1
  62   34   58 1
  63   34   59 1

#	End of record

