#	Name: ASD03091727
#	Creating user name:	WinNT
#	Creation time:	15. 06. 2019 20:31

#	Modifying user name:	WinNT
#	Modification time:	15. 06. 2019 20:31

#	Program:	/corina/corina34_cracker 3.40 0067  02.08.2006

@<TRIPOS>MOLECULE
ASD03091727
  31   33    0    0    0
SMALL
NO_CHARGES


@<TRIPOS>ATOM
   1 C1             0.1700     1.0382     0.6042 C.3     
   2 C2             0.3529    -0.4628     0.8942 C.3     
   3 N3             0.4768    -0.6261     2.3526 N.3     
   4 C4             0.4333     0.7087     2.9826 C.3     
   5 C5            -0.3100     1.6134     1.9753 C.3     
   6 C6             0.3427     3.0126     1.9876 C.3     
   7 N7             1.6321     2.8535     1.2959 N.am    
   8 C8             1.5533     1.6849     0.4108 C.3     
   9 C9             2.7084     3.6502     1.4495 C.2     
  10 O10            2.6357     4.6415     2.1484 O.2     
  11 C11            3.9800     3.3172     0.7661 C.ar    
  12 C12            4.0432     2.2786    -0.1677 C.ar    
  13 C13            5.1488     4.0366     1.0329 C.ar    
  14 C14            6.3126     3.6923     0.3729 C.ar    
  15 N15            6.3298     2.7021    -0.4970 N.ar    
  16 C16            5.2497     2.0021    -0.7813 C.ar    
  17 H17           -0.5130     1.2340    -0.2225 H       
  18 H18           -0.5132    -1.0171     0.5327 H       
  19 H19            1.2560    -0.8263     0.4038 H       
  20 H20           -0.2546    -1.2202     2.7134 H       
  21 H21           -0.1134     0.6639     3.9245 H       
  22 H22            1.4442     1.0805     3.1494 H       
  23 H23           -1.3925     1.6172     2.1030 H       
  24 H24           -0.2855     3.7261     1.4544 H       
  25 H25            0.5038     3.3443     3.0134 H       
  26 H26            2.3341     0.9707     0.6722 H       
  27 H27            1.6721     1.9988    -0.6262 H       
  28 H28            3.1623     1.7009    -0.4056 H       
  29 H29            5.1418     4.8496     1.7439 H       
  30 H30            7.2206     4.2421     0.5722 H       
  31 H31            5.3097     1.1989    -1.5009 H       
@<TRIPOS>BOND
   1    1    2 1
   2    1    8 1
   3    1    5 1
   4    1   17 1
   5    2    3 1
   6    2   18 1
   7    2   19 1
   8    3    4 1
   9    3   20 1
  10    4    5 1
  11    4   21 1
  12    4   22 1
  13    5    6 1
  14    5   23 1
  15    6    7 1
  16    6   24 1
  17    6   25 1
  18    7    8 1
  19    7    9 am
  20    8   26 1
  21    8   27 1
  22    9   10 2
  23    9   11 1
  24   11   12 ar
  25   11   13 ar
  26   12   16 ar
  27   12   28 1
  28   13   14 ar
  29   13   29 1
  30   14   15 ar
  31   14   30 1
  32   15   16 ar
  33   16   31 1

#	End of record

