#	Name: ASD07300636
#	Creating user name:	WinNT
#	Creation time:	15. 06. 2019 21:10

#	Modifying user name:	WinNT
#	Modification time:	15. 06. 2019 21:10

#	Program:	/corina/corina34_cracker 3.40 0067  02.08.2006

@<TRIPOS>MOLECULE
ASD07300636
  26   28    0    0    0
SMALL
NO_CHARGES


@<TRIPOS>ATOM
   1 C1            -0.0178     1.4584     0.0101 C.2     
   2 C2             0.0021    -0.0041     0.0020 C.2     
   3 N3             1.1827     2.1259     0.0022 N.pl3   
   4 N4             1.1685    -0.6258    -0.0125 N.2     
   5 C5             2.3131     0.0560    -0.0197 C.2     
   6 C6             2.3440     1.4049    -0.0124 C.2     
   7 N7            -0.9859     2.3547     0.0293 N.2     
   8 C8            -0.4500     3.5771     0.0278 C.2     
   9 C9             0.8987     3.4567     0.0120 C.2     
  10 C10           -2.4930    -0.1180     0.0262 C.ar    
  11 C11           -1.2624    -0.7748     0.0104 C.ar    
  12 C12           -1.2427    -2.1734     0.0023 C.ar    
  13 C13           -2.4520    -2.8467     0.0102 C.ar    
  14 C14           -3.6299    -2.1223     0.0258 C.ar    
  15 N15           -3.6177    -0.8030     0.0328 N.ar    
  16 C16           -1.2173     4.8740     0.0462 C.3     
  17 H17            3.2458    -0.4883    -0.0312 H       
  18 H18            3.2937     1.9190    -0.0187 H       
  19 H19            1.6147     4.2652     0.0095 H       
  20 H20           -2.5236     0.9615     0.0372 H       
  21 H21           -0.3079    -2.7141    -0.0103 H       
  22 H22           -2.4755    -3.9265     0.0039 H       
  23 H23           -4.5751    -2.6448     0.0321 H       
  24 H24           -1.3865     5.1814     1.0781 H       
  25 H25           -0.6443     5.6425    -0.4727 H       
  26 H26           -2.1761     4.7360    -0.4537 H       
@<TRIPOS>BOND
   1    1    2 1
   2    1    3 1
   3    1    7 2
   4    2    4 2
   5    2   11 1
   6    3    6 1
   7    3    9 1
   8    4    5 1
   9    5    6 2
  10    5   17 1
  11    6   18 1
  12    7    8 1
  13    8    9 2
  14    8   16 1
  15    9   19 1
  16   10   11 ar
  17   10   15 ar
  18   10   20 1
  19   11   12 ar
  20   12   13 ar
  21   12   21 1
  22   13   14 ar
  23   13   22 1
  24   14   15 ar
  25   14   23 1
  26   16   24 1
  27   16   25 1
  28   16   26 1

#	End of record

