#	Name: ASD01841002
#	Creating user name:	WinNT
#	Creation time:	15. 06. 2019 19:38

#	Modifying user name:	WinNT
#	Modification time:	15. 06. 2019 19:38

#	Program:	/corina/corina34_cracker 3.40 0067  02.08.2006

@<TRIPOS>MOLECULE
ASD01841002
  54   56    0    0    0
SMALL
NO_CHARGES


@<TRIPOS>ATOM
   1 C1            -0.0178     1.4636     0.0101 C.3     
   2 N2             0.0021    -0.0041     0.0020 N.4     
   3 C3             0.6443    -0.5002     1.2251 C.3     
   4 C4             2.1040    -0.0424     1.2610 C.3     
   5 C5             2.1538     1.4881     1.2412 C.3     
   6 C6             1.4163     1.9970    -0.0007 C.3     
   7 C7            -1.3751    -0.5106    -0.0662 C.3     
   8 C8            -1.3560    -2.0405    -0.0747 C.3     
   9 C9            -2.7904    -2.5681    -0.1457 C.3     
  10 C10           -2.7713    -4.0979    -0.1542 C.3     
  11 C11           -2.1135    -4.5991     1.1057 C.ar    
  12 C12           -4.1841    -4.6176    -0.2242 C.ar    
  13 O13           -2.0374    -4.5588    -1.2904 O.3     
  14 C14           -1.4262    -5.7984     1.0965 C.ar    
  15 C15           -0.8229    -6.2581     2.2522 C.ar    
  16 C16           -0.9066    -5.5183     3.4169 C.ar    
  17 C17           -1.5931    -4.3185     3.4258 C.ar    
  18 C18           -2.1927    -3.8567     2.2691 C.ar    
  19 C19           -4.4465    -5.8254    -0.8432 C.ar    
  20 C20           -5.7425    -6.3020    -0.9074 C.ar    
  21 C21           -6.7760    -5.5711    -0.3522 C.ar    
  22 C22           -6.5136    -4.3637     0.2677 C.ar    
  23 C23           -5.2170    -3.8891     0.3357 C.ar    
  24 C24            0.7527    -0.4757    -1.1693 C.3     
  25 H25           -0.5458     1.8242    -0.8727 H       
  26 H26           -0.5288     1.8147     0.9066 H       
  27 H27            0.1192    -0.1073     2.0957 H       
  28 H28            0.6052    -1.5894     1.2393 H       
  29 H29            2.5785    -0.4103     2.1707 H       
  30 H30            2.6301    -0.4350     0.3909 H       
  31 H31            1.6725     1.8801     2.1371 H       
  32 H32            3.1920     1.8186     1.2095 H       
  33 H33            1.9282     1.6467    -0.8971 H       
  34 H34            1.3994     3.0868     0.0071 H       
  35 H35           -1.9349    -0.1591     0.8005 H       
  36 H36           -1.8509    -0.1481    -0.9774 H       
  37 H37           -0.7962    -2.3920    -0.9414 H       
  38 H38           -0.8803    -2.4030     0.8366 H       
  39 H39           -3.3502    -2.2165     0.7210 H       
  40 H40           -3.2662    -2.2056    -1.0570 H       
  41 H41           -2.4048    -4.2733    -2.1382 H       
  42 H42           -1.3609    -6.3764     0.1866 H       
  43 H43           -0.2865    -7.1955     2.2452 H       
  44 H44           -0.4358    -5.8778     4.3200 H       
  45 H45           -1.6587    -3.7407     4.3359 H       
  46 H46           -2.7291    -2.9193     2.2760 H       
  47 H47           -3.6390    -6.3965    -1.2770 H       
  48 H48           -5.9475    -7.2453    -1.3917 H       
  49 H49           -7.7887    -5.9431    -0.4030 H       
  50 H50           -7.3211    -3.7925     0.7012 H       
  51 H51           -5.0120    -2.9458     0.8200 H       
  52 H52            1.7742    -0.0982    -1.1224 H       
  53 H53            0.7681    -1.5656    -1.1763 H       
  54 H54            0.2728    -0.1133    -2.0784 H       
@<TRIPOS>BOND
   1    1    2 1
   2    1    6 1
   3    1   25 1
   4    1   26 1
   5    2    3 1
   6    2    7 1
   7    2   24 1
   8    3    4 1
   9    3   27 1
  10    3   28 1
  11    4    5 1
  12    4   29 1
  13    4   30 1
  14    5    6 1
  15    5   31 1
  16    5   32 1
  17    6   33 1
  18    6   34 1
  19    7    8 1
  20    7   35 1
  21    7   36 1
  22    8    9 1
  23    8   37 1
  24    8   38 1
  25    9   10 1
  26    9   39 1
  27    9   40 1
  28   10   11 1
  29   10   12 1
  30   10   13 1
  31   11   14 ar
  32   11   18 ar
  33   12   19 ar
  34   12   23 ar
  35   13   41 1
  36   14   15 ar
  37   14   42 1
  38   15   16 ar
  39   15   43 1
  40   16   17 ar
  41   16   44 1
  42   17   18 ar
  43   17   45 1
  44   18   46 1
  45   19   20 ar
  46   19   47 1
  47   20   21 ar
  48   20   48 1
  49   21   22 ar
  50   21   49 1
  51   22   23 ar
  52   22   50 1
  53   23   51 1
  54   24   52 1
  55   24   53 1
  56   24   54 1

#	End of record

