#	Name: ASD01881703
#	Creating user name:	WinNT
#	Creation time:	15. 06. 2019 19:43

#	Modifying user name:	WinNT
#	Modification time:	15. 06. 2019 19:43

#	Program:	/corina/corina34_cracker 3.40 0067  02.08.2006

@<TRIPOS>MOLECULE
ASD01881703
  63   66    0    0    0
SMALL
NO_CHARGES


@<TRIPOS>ATOM
   1 C1             0.1600     1.1048    -1.3000 C.3     
   2 C2             0.1809    -0.4041    -1.0477 C.3     
   3 C3            -1.2150    -0.8707    -0.6298 C.3     
   4 O4             0.5715    -1.0817    -2.2437 O.3     
   5 N5            -1.2104    -2.3286    -0.4496 N.3     
   6 C6            -2.5206    -2.8061     0.0121 C.3     
   7 C7            -2.5306    -4.3385     0.0137 C.3     
   8 N8            -1.3829    -4.8123     0.8021 N.am    
   9 C9            -0.0516    -4.2722     0.4869 C.3     
  10 C10           -0.1393    -2.7424     0.4667 C.3     
  11 C11           -1.5466    -5.7178     1.7869 C.2     
  12 C12           -0.3444    -6.2829     2.4984 C.3     
  13 C13           -0.7845    -7.4284     3.4123 C.3     
  14 O14           -2.6615    -6.0777     2.1005 O.2     
  15 C15            0.6574    -6.8085     1.4683 C.3     
  16 C16            0.3144    -5.1858     3.3369 C.3     
  17 O17            1.4860     1.5600    -1.5765 O.3     
  18 N18            2.3926     6.8620    -2.6111 N.pl3   
  19 N19            3.7780     6.7480    -2.7995 N.2     
  20 N20            4.1315     5.5210    -2.6444 N.2     
  21 C21            3.0593     4.7575    -2.3541 C.ar    
  22 C22            1.9318     5.5966    -2.3274 C.ar    
  23 C23            2.8998     3.3885    -2.0988 C.ar    
  24 C24            1.6438     2.8876    -1.8250 C.ar    
  25 C25            0.5362     3.7317    -1.8018 C.ar    
  26 C26            0.6762     5.0681    -2.0501 C.ar    
  27 C27            1.5944     8.0877    -2.6937 C.3     
  28 C28            1.1054     8.2820    -4.1304 C.3     
  29 C29            0.1535     9.4488    -4.4009 C.3     
  30 C30            1.6032     9.5162    -4.8853 C.3     
  31 Br31           4.3978     2.2349    -2.1284 Br      
  32 H32           -0.4838     1.3218    -2.1524 H       
  33 H33           -0.2226     1.6157    -0.4164 H       
  34 H34            0.8924    -0.6298    -0.2534 H       
  35 H35           -1.4933    -0.3896     0.3079 H       
  36 H36           -1.9345    -0.6025    -1.4034 H       
  37 H37           -0.0180    -0.9260    -2.9943 H       
  38 H38           -2.7060    -2.4401     1.0220 H       
  39 H39           -3.2983    -2.4381    -0.6571 H       
  40 H40           -3.4565    -4.6982     0.4625 H       
  41 H41           -2.4490    -4.7063    -1.0091 H       
  42 H42            0.6614    -4.5880     1.2485 H       
  43 H43            0.2682    -4.6336    -0.4904 H       
  44 H44            0.8100    -2.3282     0.1272 H       
  45 H45           -0.3578    -2.3773     1.4702 H       
  46 H46           -1.2538    -8.2100     2.8149 H       
  47 H47            0.0851    -7.8371     3.9269 H       
  48 H48           -1.4982    -7.0540     4.1462 H       
  49 H49            1.0892    -5.9705     0.9210 H       
  50 H50            1.4498    -7.3560     1.9787 H       
  51 H51            0.1471    -7.4733     0.7715 H       
  52 H52           -0.3923    -4.8263     4.0848 H       
  53 H53            1.1963    -5.5890     3.8346 H       
  54 H54            0.6086    -4.3603     2.6887 H       
  55 H55           -0.4415     3.3265    -1.5865 H       
  56 H56           -0.1889     5.7143    -2.0300 H       
  57 H57            0.7368     8.0086    -2.0256 H       
  58 H58            2.2065     8.9404    -2.3998 H       
  59 H59            0.9560     7.3672    -4.7039 H       
  60 H60           -0.6220     9.3018    -5.1527 H       
  61 H61           -0.1244    10.0781    -3.5554 H       
  62 H62            2.2791    10.1898    -4.3584 H       
  63 H63            1.7816     9.4135    -5.9557 H       
@<TRIPOS>BOND
   1    1    2 1
   2    1   17 1
   3    1   32 1
   4    1   33 1
   5    2    3 1
   6    2    4 1
   7    2   34 1
   8    3    5 1
   9    3   35 1
  10    3   36 1
  11    4   37 1
  12    5    6 1
  13    5   10 1
  14    6    7 1
  15    6   38 1
  16    6   39 1
  17    7    8 1
  18    7   40 1
  19    7   41 1
  20    8    9 1
  21    8   11 am
  22    9   10 1
  23    9   42 1
  24    9   43 1
  25   10   44 1
  26   10   45 1
  27   11   12 1
  28   11   14 2
  29   12   13 1
  30   12   15 1
  31   12   16 1
  32   13   46 1
  33   13   47 1
  34   13   48 1
  35   15   49 1
  36   15   50 1
  37   15   51 1
  38   16   52 1
  39   16   53 1
  40   16   54 1
  41   17   24 1
  42   18   19 1
  43   18   22 1
  44   18   27 1
  45   19   20 2
  46   20   21 1
  47   21   22 ar
  48   21   23 ar
  49   22   26 ar
  50   23   24 ar
  51   23   31 1
  52   24   25 ar
  53   25   26 ar
  54   25   55 1
  55   26   56 1
  56   27   28 1
  57   27   57 1
  58   27   58 1
  59   28   29 1
  60   28   30 1
  61   28   59 1
  62   29   30 1
  63   29   60 1
  64   29   61 1
  65   30   62 1
  66   30   63 1

#	End of record

