#	Name: ASD01912855
#	Creating user name:	WinNT
#	Creation time:	15. 06. 2019 20:00

#	Modifying user name:	WinNT
#	Modification time:	15. 06. 2019 20:00

#	Program:	/corina/corina34_cracker 3.40 0067  02.08.2006

@<TRIPOS>MOLECULE
ASD01912855
  42   45    0    0    0
SMALL
NO_CHARGES


@<TRIPOS>ATOM
   1 C1            -0.0175     1.3661    -0.0396 C.2     
   2 N2             0.0021    -0.0041     0.0056 N.pl3   
   3 C3            -1.2012    -0.6912     0.0639 C.2     
   4 C4            -2.3620    -0.0488     0.0760 C.2     
   5 N5            -2.4358     1.3307     0.0320 N.am    
   6 C6            -1.3028     2.0662    -0.0200 C.2     
   7 C7             1.2997     1.7823    -0.0922 C.2     
   8 C8             2.0538     0.6101    -0.0751 C.2     
   9 N9             1.2242    -0.4047    -0.0168 N.2     
  10 O10           -1.3507     3.2825    -0.0593 O.2     
  11 C11           -3.6826     1.9657     0.0464 C.ar    
  12 C12            3.5577     0.5236    -0.1170 C.3     
  13 O13            4.1091     1.8405    -0.1780 O.3     
  14 C14            5.4637     1.9408    -0.2218 C.ar    
  15 C15            6.0665     3.1889    -0.2820 C.ar    
  16 C16            7.4436     3.2882    -0.3265 C.ar    
  17 C17            8.2212     2.1450    -0.3111 C.ar    
  18 C18            7.6229     0.8999    -0.2516 C.ar    
  19 C19            6.2463     0.7955    -0.2007 C.ar    
  20 C20           -4.5426     1.8347    -1.0362 C.ar    
  21 C21           -4.0647     2.7236     1.1458 C.ar    
  22 C22           -5.2958     3.3498     1.1583 C.ar    
  23 C23           -6.1488     3.2234     0.0778 C.ar    
  24 C24           -5.7741     2.4638    -1.0185 C.ar    
  25 C25           -5.7100     4.1716     2.3517 C.3     
  26 F26           -6.6096     2.3424    -2.0732 F       
  27 H27           -1.1932    -1.7705     0.0997 H       
  28 H28           -3.2768    -0.6210     0.1212 H       
  29 H29            1.6658     2.7973    -0.1374 H       
  30 H30            3.9179     0.0201     0.7801 H       
  31 H31            3.8648    -0.0400    -0.9980 H       
  32 H32            5.4595     4.0821    -0.2944 H       
  33 H33            7.9133     4.2596    -0.3737 H       
  34 H34            9.2976     2.2247    -0.3459 H       
  35 H35            8.2324     0.0084    -0.2404 H       
  36 H36            5.7794    -0.1773    -0.1542 H       
  37 H37           -4.2500     1.2426    -1.8907 H       
  38 H38           -3.3995     2.8230     1.9909 H       
  39 H39           -7.1108     3.7141     0.0902 H       
  40 H40           -5.3898     5.2039     2.2107 H       
  41 H41           -6.7944     4.1386     2.4569 H       
  42 H42           -5.2452     3.7666     3.2506 H       
@<TRIPOS>BOND
   1    1    2 1
   2    1    7 2
   3    1    6 1
   4    2    3 1
   5    2    9 1
   6    3    4 2
   7    3   27 1
   8    4    5 1
   9    4   28 1
  10    5    6 am
  11    5   11 1
  12    6   10 2
  13    7    8 1
  14    7   29 1
  15    8    9 2
  16    8   12 1
  17   11   20 ar
  18   11   21 ar
  19   12   13 1
  20   12   30 1
  21   12   31 1
  22   13   14 1
  23   14   15 ar
  24   14   19 ar
  25   15   16 ar
  26   15   32 1
  27   16   17 ar
  28   16   33 1
  29   17   18 ar
  30   17   34 1
  31   18   19 ar
  32   18   35 1
  33   19   36 1
  34   20   24 ar
  35   20   37 1
  36   21   22 ar
  37   21   38 1
  38   22   23 ar
  39   22   25 1
  40   23   24 ar
  41   23   39 1
  42   24   26 1
  43   25   40 1
  44   25   41 1
  45   25   42 1

#	End of record

