#	Name: ASD00191013
#	Creating user name:	WinNT
#	Creation time:	15. 06. 2019 18:33

#	Modifying user name:	WinNT
#	Modification time:	15. 06. 2019 18:33

#	Program:	/corina/corina34_cracker 3.40 0067  02.08.2006

@<TRIPOS>MOLECULE
ASD00191013
  50   53    0    0    0
SMALL
NO_CHARGES


@<TRIPOS>ATOM
   1 C1            -0.1454     1.0990     0.3082 C.2     
   2 C2             0.0829     0.1282    -0.5504 C.2     
   3 C3             1.2614    -0.7978    -0.4693 C.3     
   4 C4             2.3351    -0.2048     0.4453 C.3     
   5 C5             1.6721     0.2247     1.7598 C.3     
   6 C6             0.7483     1.4102     1.4732 C.3     
   7 C7            -1.3420     1.9306     0.1114 C.2     
   8 O8            -2.0875     1.7119    -0.8243 O.2     
   9 N9            -1.6127     2.9354     0.9680 N.am    
  10 N10           -5.0971     5.1697     0.5070 N.ar    
  11 C11           -5.0469     3.9249     0.0751 C.ar    
  12 C12           -3.8939     3.1460     0.2140 C.ar    
  13 C13           -2.7739     3.6847     0.8159 C.ar    
  14 C14           -2.8432     5.0241     1.2745 C.ar    
  15 C15           -1.7470     5.6374     1.8942 C.ar    
  16 C16           -1.8491     6.9277     2.3226 C.ar    
  17 C17           -3.0302     7.6439     2.1522 C.ar    
  18 C18           -4.1146     7.0767     1.5540 C.ar    
  19 C19           -4.0455     5.7493     1.0992 C.ar    
  20 N20           -6.1671     3.3734    -0.5314 N.pl3   
  21 C21           -7.3844     4.0597    -0.5067 C.ar    
  22 C22           -8.5804     3.3597    -0.6037 C.ar    
  23 C23           -9.7814     4.0409    -0.5784 C.ar    
  24 C24           -9.7944     5.4184    -0.4572 C.ar    
  25 C25           -8.6056     6.1184    -0.3604 C.ar    
  26 C26           -7.4013     5.4429    -0.3792 C.ar    
  27 C27          -11.1069     6.1585    -0.4310 C.3     
  28 H28           -0.6184    -0.0105    -1.3599 H       
  29 H29            0.9384    -1.7597    -0.0710 H       
  30 H30            1.6762    -0.9429    -1.4668 H       
  31 H31            3.0986    -0.9558     0.6486 H       
  32 H32            2.7887     0.6615    -0.0362 H       
  33 H33            1.0902    -0.6036     2.1642 H       
  34 H34            2.4379     0.5220     2.4762 H       
  35 H35            1.3497     2.2894     1.2425 H       
  36 H36            0.1376     1.6134     2.3529 H       
  37 H37           -0.9974     3.1357     1.6906 H       
  38 H38           -3.8791     2.1286    -0.1481 H       
  39 H39           -0.8257     5.0909     2.0323 H       
  40 H40           -1.0032     7.3997     2.8003 H       
  41 H41           -3.0880     8.6648     2.4998 H       
  42 H42           -5.0240     7.6457     1.4291 H       
  43 H43           -6.1051     2.5116    -0.9724 H       
  44 H44           -8.5709     2.2840    -0.6991 H       
  45 H45          -10.7116     3.4973    -0.6538 H       
  46 H46           -8.6193     7.1942    -0.2662 H       
  47 H47           -6.4734     5.9897    -0.2994 H       
  48 H48          -11.4538     6.2466     0.5985 H       
  49 H49          -10.9715     7.1534    -0.8552 H       
  50 H50          -11.8446     5.6108    -1.0174 H       
@<TRIPOS>BOND
   1    1    2 2
   2    1    6 1
   3    1    7 1
   4    2    3 1
   5    2   28 1
   6    3    4 1
   7    3   29 1
   8    3   30 1
   9    4    5 1
  10    4   31 1
  11    4   32 1
  12    5    6 1
  13    5   33 1
  14    5   34 1
  15    6   35 1
  16    6   36 1
  17    7    8 2
  18    7    9 am
  19    9   13 1
  20    9   37 1
  21   10   11 ar
  22   10   19 ar
  23   11   12 ar
  24   11   20 1
  25   12   13 ar
  26   12   38 1
  27   13   14 ar
  28   14   15 ar
  29   14   19 ar
  30   15   16 ar
  31   15   39 1
  32   16   17 ar
  33   16   40 1
  34   17   18 ar
  35   17   41 1
  36   18   19 ar
  37   18   42 1
  38   20   21 1
  39   20   43 1
  40   21   22 ar
  41   21   26 ar
  42   22   23 ar
  43   22   44 1
  44   23   24 ar
  45   23   45 1
  46   24   25 ar
  47   24   27 1
  48   25   26 ar
  49   25   46 1
  50   26   47 1
  51   27   48 1
  52   27   49 1
  53   27   50 1

#	End of record

