#	Name: ASD04590278
#	Creating user name:	WinNT
#	Creation time:	15. 06. 2019 20:50

#	Modifying user name:	WinNT
#	Modification time:	15. 06. 2019 20:50

#	Program:	/corina/corina34_cracker 3.40 0067  02.08.2006

@<TRIPOS>MOLECULE
ASD04590278
  39   42    0    0    0
SMALL
NO_CHARGES


@<TRIPOS>ATOM
   1 C1            -0.0169     1.3978     0.0097 C.ar    
   2 C2             0.0021    -0.0041     0.0020 C.ar    
   3 C3            -1.1613    -0.7115     0.0093 C.ar    
   4 C4            -2.3918    -0.0406     0.0247 C.ar    
   5 C5            -2.4178     1.3679     0.0330 C.ar    
   6 C6            -1.2335     2.0815     0.0308 C.ar    
   7 N7            -3.6713    -0.4630     0.0342 N.2     
   8 C8            -4.4809     0.5700     0.0477 C.2     
   9 N9            -3.7534     1.7282     0.0475 N.pl3   
  10 C10           -5.9558     0.4933     0.0607 C.2     
  11 C11           -6.7268    -0.6924     0.0611 C.2     
  12 C12           -8.0342    -0.3351     0.0749 C.2     
  13 N13           -8.0952     1.0225     0.0829 N.pl3   
  14 N14           -6.7855     1.5185     0.0795 N.2     
  15 N15           -6.2273    -2.0045     0.0490 N.am    
  16 C16           -7.0784    -3.0496     0.0510 C.2     
  17 C17           -6.5536    -4.4283     0.0382 C.ar    
  18 O18           -8.2789    -2.8560     0.0633 O.2     
  19 C19           -5.7946    -6.3821     1.2201 C.ar    
  20 C20           -5.5662    -7.0196     0.0142 C.ar    
  21 C21           -5.8224    -6.3704    -1.1799 C.ar    
  22 C22           -6.3146    -5.0789    -1.1771 C.ar    
  23 F23           -6.5647    -4.4467    -2.3446 F       
  24 C24           -6.2866    -5.0906     1.2413 C.ar    
  25 F25           -6.5085    -4.4694     2.4203 F       
  26 C26            1.2502     2.1509     0.0017 C.2     
  27 O27            1.2349     3.3659     0.0083 O.2     
  28 O28            2.4256     1.4919    -0.0131 O.3     
  29 H29            0.9470    -0.5270    -0.0102 H       
  30 H30           -1.1359    -1.7912     0.0029 H       
  31 H31           -1.2499     3.1613     0.0375 H       
  32 H32           -4.1070     2.6314     0.0560 H       
  33 H33           -8.8777    -1.0096     0.0785 H       
  34 H34           -8.9055     1.5556     0.0932 H       
  35 H35           -5.2697    -2.1589     0.0391 H       
  36 H36           -5.5918    -6.8963     2.1479 H       
  37 H37           -5.1817    -8.0288     0.0049 H       
  38 H38           -5.6410    -6.8755    -2.1171 H       
  39 H39            3.2299     2.0287    -0.0179 H       
@<TRIPOS>BOND
   1    1    2 ar
   2    1   26 1
   3    1    6 ar
   4    2    3 ar
   5    2   29 1
   6    3    4 ar
   7    3   30 1
   8    4    5 ar
   9    4    7 1
  10    5    6 ar
  11    5    9 1
  12    6   31 1
  13    7    8 2
  14    8    9 1
  15    8   10 1
  16    9   32 1
  17   10   11 1
  18   10   14 2
  19   11   12 2
  20   11   15 1
  21   12   13 1
  22   12   33 1
  23   13   14 1
  24   13   34 1
  25   15   16 am
  26   15   35 1
  27   16   17 1
  28   16   18 2
  29   17   22 ar
  30   17   24 ar
  31   19   20 ar
  32   19   24 ar
  33   19   36 1
  34   20   21 ar
  35   20   37 1
  36   21   22 ar
  37   21   38 1
  38   22   23 1
  39   24   25 1
  40   26   27 2
  41   26   28 1
  42   28   39 1

#	End of record

