#	Name: ASD01810616
#	Creating user name:	WinNT
#	Creation time:	15. 06. 2019 19:24

#	Modifying user name:	WinNT
#	Modification time:	15. 06. 2019 19:24

#	Program:	/corina/corina34_cracker 3.40 0067  02.08.2006

@<TRIPOS>MOLECULE
ASD01810616
  26   26    0    0    0
SMALL
NO_CHARGES


@<TRIPOS>ATOM
   1 C1            -0.0184     1.5028     0.0103 C.2     
   2 C2             0.0021    -0.0041     0.0020 C.3     
   3 C3             1.4295    -0.4870    -0.0142 C.2     
   4 O4             1.0197     2.1211     0.0037 O.2     
   5 O5            -1.1898     2.1580     0.0194 O.3     
   6 O6             2.3406     0.3137    -0.0186 O.2     
   7 C7             1.7173    -1.9265    -0.0247 C.ar    
   8 C8             3.0436    -2.3809    -0.0398 C.ar    
   9 C9             3.3039    -3.7377    -0.0496 C.ar    
  10 C10            2.2611    -4.6468    -0.0446 C.ar    
  11 C11            0.9490    -4.2086    -0.0297 C.ar    
  12 C12            0.6677    -2.8560    -0.0139 C.ar    
  13 F13           -0.6144    -2.4306     0.0068 F       
  14 F14            4.0636    -1.4950    -0.0452 F       
  15 C15           -1.1335     3.6089     0.0270 C.3     
  16 C16           -2.5551     4.1744     0.0369 C.3     
  17 H17           -0.4983    -0.3791     0.8948 H       
  18 H18           -0.5153    -0.3696    -0.8850 H       
  19 H19            4.3248    -4.0897    -0.0616 H       
  20 H20            2.4728    -5.7058    -0.0527 H       
  21 H21            0.1420    -4.9262    -0.0259 H       
  22 H22           -0.6017     3.9472     0.9164 H       
  23 H23           -0.6102     3.9569    -0.8636 H       
  24 H24           -3.0869     3.8361    -0.8525 H       
  25 H25           -3.0784     3.8265     0.9275 H       
  26 H26           -2.5128     5.2636     0.0426 H       
@<TRIPOS>BOND
   1    1    2 1
   2    1    4 2
   3    1    5 1
   4    2    3 1
   5    2   17 1
   6    2   18 1
   7    3    6 2
   8    3    7 1
   9    5   15 1
  10    7    8 ar
  11    7   12 ar
  12    8    9 ar
  13    8   14 1
  14    9   10 ar
  15    9   19 1
  16   10   11 ar
  17   10   20 1
  18   11   12 ar
  19   11   21 1
  20   12   13 1
  21   15   16 1
  22   15   22 1
  23   15   23 1
  24   16   24 1
  25   16   25 1
  26   16   26 1

#	End of record

