#	Name: ASD02038021
#	Creating user name:	WinNT
#	Creation time:	15. 06. 2019 20:16

#	Modifying user name:	WinNT
#	Modification time:	15. 06. 2019 20:16

#	Program:	/corina/corina34_cracker 3.40 0067  02.08.2006

@<TRIPOS>MOLECULE
ASD02038021
  47   50    0    0    0
SMALL
NO_CHARGES


@<TRIPOS>ATOM
   1 C1            -0.0165     1.3838     0.0025 C.ar    
   2 N2             1.1847     2.1018     0.0020 N.am    
   3 N3             2.3154     4.1441     0.0016 N.am    
   4 C4             1.1663     3.4461    -0.0923 C.2     
   5 C5             5.2010     5.9252     0.4371 C.3     
   6 O6             6.2241     5.6168     1.3859 O.3     
   7 C7             7.4461     6.1762     1.1796 C.ar    
   8 C8             8.4847     5.9185     2.0629 C.ar    
   9 C9             7.6555     6.9997     0.0833 C.ar    
  10 C10            8.8964     7.5683    -0.1272 C.ar    
  11 C11            9.9343     7.3155     0.7593 C.ar    
  12 C12            9.7252     6.4865     1.8538 C.ar    
  13 N13           11.1937     7.8905     0.5496 N.am    
  14 C14           12.2835     7.3846     1.1555 C.2     
  15 C15           12.1761     6.1822     2.0541 C.3     
  16 C16           10.8535     6.2147     2.8146 C.3     
  17 O17            0.1130     4.0292    -0.2621 O.2     
  18 O18           13.3649     7.9034     0.9749 O.2     
  19 C19           -1.0846     1.8146    -0.7731 C.ar    
  20 C20           -2.2694     1.1042    -0.7710 C.ar    
  21 C21           -2.3929    -0.0349     0.0024 C.ar    
  22 C22           -1.3304    -0.4672     0.7773 C.ar    
  23 C23           -0.1406     0.2361     0.7743 C.ar    
  24 Cl24          -1.4899    -1.8979     1.7475 Cl      
  25 C25            2.6998     5.5628    -0.0481 C.3     
  26 C26            3.9070     5.2106     0.8320 C.3     
  27 C27            3.7360     3.8226     0.2055 C.3     
  28 H28            2.0306     1.6319     0.0696 H       
  29 H29            5.0316     7.0019     0.4225 H       
  30 H30            5.5119     5.5929    -0.5534 H       
  31 H31            8.3225     5.2739     2.9141 H       
  32 H32            6.8478     7.1960    -0.6063 H       
  33 H33            9.0593     8.2090    -0.9812 H       
  34 H34           11.2812     8.6585    -0.0365 H       
  35 H35           12.2214     5.2749     1.4518 H       
  36 H36           13.0034     6.1856     2.7638 H       
  37 H37           10.8859     7.0037     3.5659 H       
  38 H38           10.6922     5.2541     3.3038 H       
  39 H39           -0.9893     2.7046    -1.3774 H       
  40 H40           -3.1003     1.4394    -1.3739 H       
  41 H41           -3.3202    -0.5885     0.0023 H       
  42 H42            0.6884    -0.1012     1.3788 H       
  43 H43            2.9749     5.9032    -1.0464 H       
  44 H44            1.9842     6.2238     0.4409 H       
  45 H45            3.7050     5.2456     1.9025 H       
  46 H46            3.9010     3.0059     0.9082 H       
  47 H47            4.2876     3.6959    -0.7260 H       
@<TRIPOS>BOND
   1    1   19 ar
   2    1    2 1
   3    1   23 ar
   4    2    4 am
   5    2   28 1
   6    3    4 am
   7    3   25 1
   8    3   27 1
   9    4   17 2
  10    5    6 1
  11    5   26 1
  12    5   29 1
  13    5   30 1
  14    6    7 1
  15    7    8 ar
  16    7    9 ar
  17    8   12 ar
  18    8   31 1
  19    9   10 ar
  20    9   32 1
  21   10   11 ar
  22   10   33 1
  23   11   12 ar
  24   11   13 1
  25   12   16 1
  26   13   14 am
  27   13   34 1
  28   14   15 1
  29   14   18 2
  30   15   16 1
  31   15   35 1
  32   15   36 1
  33   16   37 1
  34   16   38 1
  35   19   20 ar
  36   19   39 1
  37   20   21 ar
  38   20   40 1
  39   21   22 ar
  40   21   41 1
  41   22   23 ar
  42   22   24 1
  43   23   42 1
  44   25   26 1
  45   25   43 1
  46   25   44 1
  47   26   27 1
  48   26   45 1
  49   27   46 1
  50   27   47 1

#	End of record

