#	Name: ASD05062008
#	Creating user name:	WinNT
#	Creation time:	15. 06. 2019 20:56

#	Modifying user name:	WinNT
#	Modification time:	15. 06. 2019 20:56

#	Program:	/corina/corina34_cracker 3.40 0067  02.08.2006

@<TRIPOS>MOLECULE
ASD05062008
  43   45    0    0    0
SMALL
NO_CHARGES


@<TRIPOS>ATOM
   1 C1            -0.0168     1.3899     0.0097 C.ar    
   2 C2             0.0021    -0.0041     0.0020 C.ar    
   3 C3            -1.1544    -0.7212     0.0092 C.ar    
   4 C4            -2.3910    -0.0518     0.0250 C.ar    
   5 C5            -2.4064     1.3638     0.0333 C.ar    
   6 C6            -1.1975     2.0719     0.0303 C.ar    
   7 N7            -3.5419    -0.7326     0.0318 N.ar    
   8 C8            -4.7038    -0.1247     0.0462 C.ar    
   9 C9            -4.8074     1.2615     0.0552 C.ar    
  10 C10           -3.6549     2.0357     0.0493 C.ar    
  11 C11           -3.7273     3.5150     0.0590 C.ar    
  12 C12           -6.1627     1.9200     0.0712 C.3     
  13 C13           -6.9361     1.5078    -1.1548 C.2     
  14 O14           -6.4378     0.7562    -1.9590 O.2     
  15 O15           -8.1785     1.9754    -1.3533 O.3     
  16 Cl16           1.4807     2.2680     0.0001 Cl      
  17 C17           -3.2424     4.2327     1.1523 C.ar    
  18 C18           -3.3127     5.6107     1.1554 C.ar    
  19 C19           -3.8628     6.2806     0.0771 C.ar    
  20 C20           -4.3459     5.5743    -1.0100 C.ar    
  21 C21           -4.2756     4.1964    -1.0276 C.ar    
  22 C22           -6.9254     1.4869     1.3249 C.3     
  23 C23           -8.2292     2.2386     1.4045 C.2     
  24 C24           -9.3584     1.5824     1.5060 C.2     
  25 C25           -5.9630    -0.9527     0.0526 C.3     
  26 H26            0.9492    -0.5228    -0.0102 H       
  27 H27           -1.1227    -1.8007     0.0024 H       
  28 H28           -1.2008     3.1519     0.0365 H       
  29 H29           -6.0404     3.0031     0.0764 H       
  30 H30           -8.6350     1.6829    -2.1540 H       
  31 H31           -2.8130     3.7109     1.9947 H       
  32 H32           -2.9378     6.1675     2.0015 H       
  33 H33           -3.9156     7.3592     0.0842 H       
  34 H34           -4.7746     6.1028    -1.8486 H       
  35 H35           -4.6528     3.6461    -1.8769 H       
  36 H36           -7.1255     0.4165     1.2768 H       
  37 H37           -6.3257     1.7051     2.2085 H       
  38 H38           -8.2325     3.3182     1.3778 H       
  39 H39           -9.3550     0.5027     1.5326 H       
  40 H40          -10.2927     2.1210     1.5630 H       
  41 H41           -6.2571    -1.1586     1.0818 H       
  42 H42           -6.7602    -0.4056    -0.4506 H       
  43 H43           -5.7823    -1.8928    -0.4686 H       
@<TRIPOS>BOND
   1    1    2 ar
   2    1   16 1
   3    1    6 ar
   4    2    3 ar
   5    2   26 1
   6    3    4 ar
   7    3   27 1
   8    4    5 ar
   9    4    7 ar
  10    5    6 ar
  11    5   10 ar
  12    6   28 1
  13    7    8 ar
  14    8    9 ar
  15    8   25 1
  16    9   10 ar
  17    9   12 1
  18   10   11 1
  19   11   17 ar
  20   11   21 ar
  21   12   13 1
  22   12   22 1
  23   12   29 1
  24   13   14 2
  25   13   15 1
  26   15   30 1
  27   17   18 ar
  28   17   31 1
  29   18   19 ar
  30   18   32 1
  31   19   20 ar
  32   19   33 1
  33   20   21 ar
  34   20   34 1
  35   21   35 1
  36   22   23 1
  37   22   36 1
  38   22   37 1
  39   23   24 2
  40   23   38 1
  41   24   39 1
  42   24   40 1
  43   25   41 1
  44   25   42 1
  45   25   43 1

#	End of record

