#	Name: ASD02500114
#	Creating user name:	WinNT
#	Creation time:	15. 06. 2019 20:22

#	Modifying user name:	WinNT
#	Modification time:	15. 06. 2019 20:22

#	Program:	/corina/corina34_cracker 3.40 0067  02.08.2006

@<TRIPOS>MOLECULE
ASD02500114
  35   37    0    0    0
SMALL
NO_CHARGES


@<TRIPOS>ATOM
   1 C1             0.5031    -5.3499    -5.4469 C.2     
   2 C2             0.3802    -5.0173    -4.0164 C.ar    
   3 C3             0.2565    -3.6833    -3.6151 C.ar    
   4 C4             0.1418    -3.3773    -2.2835 C.ar    
   5 C5             0.1489    -4.3930    -1.3311 C.ar    
   6 C6             0.2723    -5.7222    -1.7271 C.ar    
   7 C7             0.3811    -6.0355    -3.0575 C.ar    
   8 O8             0.4971    -4.4646    -6.2792 O.2     
   9 O9             0.6278    -6.6355    -5.8315 O.3     
  10 S10           -1.0229    -4.9217     0.9763 S.o2    
  11 O11           -0.7580    -6.2994     0.7505 O.2     
  12 O12           -0.9654    -4.3199     2.2623 O.2     
  13 N13            0.0329    -4.0793     0.0182 N.am    
  14 N14           -2.5141    -2.3140     0.9682 N.ar    
  15 C15           -3.0260    -1.1094     1.0399 C.ar    
  16 C16           -4.3044    -0.8265     0.5634 C.ar    
  17 C17           -5.0581    -1.8182     0.0033 C.ar    
  18 C18           -4.5049    -3.1105    -0.0723 C.ar    
  19 C19           -5.2198    -4.1802    -0.6341 C.ar    
  20 C20           -4.6499    -5.4157    -0.6885 C.ar    
  21 C21           -3.3654    -5.6328    -0.1947 C.ar    
  22 C22           -2.6445    -4.6188     0.3573 C.ar    
  23 C23           -3.1987    -3.3293     0.4319 C.ar    
  24 H24            0.2517    -2.8949    -4.3533 H       
  25 H25            0.0463    -2.3474    -1.9730 H       
  26 H26            0.2778    -6.5076    -0.9858 H       
  27 H27            0.4720    -7.0670    -3.3644 H       
  28 H28            0.7054    -6.8042    -6.7805 H       
  29 H29            0.5703    -3.3670     0.3984 H       
  30 H30           -2.4415    -0.3152     1.4803 H       
  31 H31           -4.6991     0.1761     0.6372 H       
  32 H32           -6.0510    -1.6167    -0.3707 H       
  33 H33           -6.2162    -4.0241    -1.0205 H       
  34 H34           -5.2006    -6.2380    -1.1209 H       
  35 H35           -2.9356    -6.6221    -0.2487 H       
@<TRIPOS>BOND
   1    1    2 1
   2    1    8 2
   3    1    9 1
   4    2    3 ar
   5    2    7 ar
   6    3    4 ar
   7    3   24 1
   8    4    5 ar
   9    4   25 1
  10    5    6 ar
  11    5   13 1
  12    6    7 ar
  13    6   26 1
  14    7   27 1
  15    9   28 1
  16   10   11 2
  17   10   12 2
  18   10   13 am
  19   10   22 1
  20   13   29 1
  21   14   15 ar
  22   14   23 ar
  23   15   16 ar
  24   15   30 1
  25   16   17 ar
  26   16   31 1
  27   17   18 ar
  28   17   32 1
  29   18   19 ar
  30   18   23 ar
  31   19   20 ar
  32   19   33 1
  33   20   21 ar
  34   20   34 1
  35   21   22 ar
  36   21   35 1
  37   22   23 ar

#	End of record

