#	Name: ASD02408169
#	Creating user name:	WinNT
#	Creation time:	15. 06. 2019 20:21

#	Modifying user name:	WinNT
#	Modification time:	15. 06. 2019 20:21

#	Program:	/corina/corina34_cracker 3.40 0067  02.08.2006

@<TRIPOS>MOLECULE
ASD02408169
  53   55    0    0    0
SMALL
NO_CHARGES


@<TRIPOS>ATOM
   1 C1             0.4153     2.5318    -0.0571 C.3     
   2 C2             0.2048     1.0685     0.2355 C.ar    
   3 C3             0.2231     0.6152     1.5411 C.ar    
   4 C4            -0.0122     0.1804    -0.8016 C.ar    
   5 C5            -0.2053    -1.1616    -0.5333 C.ar    
   6 C6            -0.1809    -1.6160     0.7723 C.ar    
   7 C7             0.0300    -0.7272     1.8095 C.ar    
   8 C8            -0.0387     0.6757    -2.2247 C.3     
   9 C9             1.3679     0.7354    -2.7620 C.2     
  10 N10            1.5645     1.1558    -4.0267 N.am    
  11 N11            2.3558     0.3832    -1.9848 N.2     
  12 C12            3.6258     0.4165    -2.4082 C.2     
  13 C13            3.9024     0.8401    -3.7186 C.2     
  14 C14            2.8109     1.2222    -4.5402 C.2     
  15 N15            4.6469     0.0411    -1.5701 N.pl3   
  16 C16            4.4952    -1.1156    -0.6768 C.3     
  17 O17            2.9941     1.5977    -5.6853 O.2     
  18 C18           -0.3920    -3.0792     1.0649 C.3     
  19 C19            4.8146    -0.6773     0.7559 C.3     
  20 C20            6.2028    -0.0340     0.7908 C.3     
  21 C21            6.2155     1.2050    -0.1075 C.3     
  22 C22            5.9140     0.7846    -1.5540 C.3     
  23 C23            6.5397     0.3738     2.2264 C.3     
  24 C24            7.9745     0.9022     2.2832 C.3     
  25 O25            8.2891     1.2831     3.6241 O.3     
  26 C26            5.2469     0.8898    -4.2089 C.1     
  27 N27            6.3135     0.9293    -4.5979 N.1     
  28 H28            1.4789     2.7249    -0.1972 H       
  29 H29           -0.1257     2.8025    -0.9638 H       
  30 H30            0.0451     3.1263     0.7781 H       
  31 H31            0.3885     1.3096     2.3515 H       
  32 H32           -0.3755    -1.8553    -1.3434 H       
  33 H33            0.0490    -1.0821     2.8294 H       
  34 H34           -0.6323    -0.0048    -2.8352 H       
  35 H35           -0.4818     1.6711    -2.2547 H       
  36 H36            0.8047     1.4124    -4.5723 H       
  37 H37            3.4704    -1.4836    -0.7264 H       
  38 H38            5.1839    -1.9041    -0.9798 H       
  39 H39            0.5693    -3.5929     1.0606 H       
  40 H40           -0.8589    -3.1903     2.0436 H       
  41 H41           -1.0390    -3.5126     0.3023 H       
  42 H42            4.0702     0.0455     1.0898 H       
  43 H43            4.7996    -1.5461     1.4140 H       
  44 H44            6.9436    -0.7493     0.4334 H       
  45 H45            5.4579     1.9101     0.2345 H       
  46 H46            7.1976     1.6759    -0.0639 H       
  47 H47            6.7198     0.1520    -1.9262 H       
  48 H48            5.8237     1.6717    -2.1810 H       
  49 H49            5.8521     1.1538     2.5535 H       
  50 H50            6.4452    -0.4920     2.8818 H       
  51 H51            8.6621     0.1223     1.9562 H       
  52 H52            8.0689     1.7680     1.6278 H       
  53 H53            9.1856     1.6283     3.7348 H       
@<TRIPOS>BOND
   1    1    2 1
   2    1   28 1
   3    1   29 1
   4    1   30 1
   5    2    3 ar
   6    2    4 ar
   7    3    7 ar
   8    3   31 1
   9    4    5 ar
  10    4    8 1
  11    5    6 ar
  12    5   32 1
  13    6    7 ar
  14    6   18 1
  15    7   33 1
  16    8    9 1
  17    8   34 1
  18    8   35 1
  19    9   10 1
  20    9   11 2
  21   10   14 am
  22   10   36 1
  23   11   12 1
  24   12   13 2
  25   12   15 1
  26   13   14 1
  27   13   26 1
  28   14   17 2
  29   15   16 1
  30   15   22 1
  31   16   19 1
  32   16   37 1
  33   16   38 1
  34   18   39 1
  35   18   40 1
  36   18   41 1
  37   19   20 1
  38   19   42 1
  39   19   43 1
  40   20   21 1
  41   20   23 1
  42   20   44 1
  43   21   22 1
  44   21   45 1
  45   21   46 1
  46   22   47 1
  47   22   48 1
  48   23   24 1
  49   23   49 1
  50   23   50 1
  51   24   25 1
  52   24   51 1
  53   24   52 1
  54   25   53 1
  55   26   27 3

#	End of record

