#	Name: ASD08150054
#	Creating user name:	WinNT
#	Creation time:	15. 06. 2019 21:15

#	Modifying user name:	WinNT
#	Modification time:	15. 06. 2019 21:15

#	Program:	/corina/corina34_cracker 3.40 0067  02.08.2006

@<TRIPOS>MOLECULE
ASD08150054
  49   53    0    0    0
SMALL
NO_CHARGES


@<TRIPOS>ATOM
   1 N1            -0.0157     1.2953    -0.0516 N.2     
   2 C2             0.0018    -0.0027    -0.0877 C.2     
   3 N3             1.1481    -0.7345    -0.1046 N.am    
   4 C4             2.3556    -0.1235    -0.0845 C.2     
   5 C5             2.3701     1.3459    -0.0440 C.ar    
   6 C6             3.5601     2.0707    -0.0212 C.ar    
   7 C7             3.5159     3.4470     0.0160 C.ar    
   8 C8             2.2980     4.1145     0.0314 C.ar    
   9 C9             1.1112     3.4174     0.0098 C.ar    
  10 C10            1.1295     2.0215    -0.0285 C.ar    
  11 O11            3.3896    -0.7658    -0.0988 O.2     
  12 C12           -1.3149    -0.7353    -0.1115 C.3     
  13 S13           -2.6721     0.4618    -0.0817 S.3     
  14 N14           -5.9169     1.0957    -0.0726 N.2     
  15 C15           -7.2142     0.9915    -0.0788 C.2     
  16 N16           -7.5755    -0.3225    -0.1156 N.pl3   
  17 C17           -6.4224    -1.0657    -0.1330 C.ar    
  18 N18           -6.1436    -2.3648    -0.1681 N.ar    
  19 C19           -4.8954    -2.7835    -0.1767 C.ar    
  20 N20           -3.8691    -1.9535    -0.1520 N.ar    
  21 C21           -4.0496    -0.6364    -0.1158 C.ar    
  22 C22           -5.3651    -0.1408    -0.1049 C.ar    
  23 C23            4.8857     1.3540    -0.0367 C.3     
  24 C24            1.0783    -2.1340    -0.1428 C.ar    
  25 C25            1.0404    -2.8643     1.0433 C.ar    
  26 C26            0.9709    -4.2473     0.9993 C.ar    
  27 C27            0.9394    -4.8997    -0.2193 C.ar    
  28 C28            0.9774    -4.1757    -1.3966 C.ar    
  29 C29            1.0410    -2.7954    -1.3614 C.ar    
  30 O30            1.0720    -2.2214     2.2407 O.3     
  31 C31            1.0299    -3.0346     3.4150 C.3     
  32 H32            4.4362     4.0119     0.0337 H       
  33 H33            2.2819     5.1940     0.0610 H       
  34 H34            0.1703     3.9475     0.0228 H       
  35 H35           -1.3801    -1.3360    -1.0187 H       
  36 H36           -1.3847    -1.3855     0.7606 H       
  37 H37           -7.9029     1.8232    -0.0578 H       
  38 H38           -8.4817    -0.6685    -0.1274 H       
  39 H39           -4.7039    -3.8460    -0.2052 H       
  40 H40            5.1532     1.1069    -1.0641 H       
  41 H41            5.6523     1.9987     0.3933 H       
  42 H42            4.8105     0.4382     0.5495 H       
  43 H43            0.9418    -4.8159     1.9170 H       
  44 H44            0.8852    -5.9778    -0.2517 H       
  45 H45            0.9532    -4.6897    -2.3461 H       
  46 H46            1.0660    -2.2323    -2.2826 H       
  47 H47            0.1092    -3.6181     3.4201 H       
  48 H48            1.8869    -3.7080     3.4215 H       
  49 H49            1.0614    -2.3979     4.2992 H       
@<TRIPOS>BOND
   1    1    2 2
   2    1   10 1
   3    2    3 1
   4    2   12 1
   5    3    4 am
   6    3   24 1
   7    4    5 1
   8    4   11 2
   9    5    6 ar
  10    5   10 ar
  11    6    7 ar
  12    6   23 1
  13    7    8 ar
  14    7   32 1
  15    8    9 ar
  16    8   33 1
  17    9   10 ar
  18    9   34 1
  19   12   13 1
  20   12   35 1
  21   12   36 1
  22   13   21 1
  23   14   15 2
  24   14   22 1
  25   15   16 1
  26   15   37 1
  27   16   17 1
  28   16   38 1
  29   17   18 ar
  30   17   22 ar
  31   18   19 ar
  32   19   20 ar
  33   19   39 1
  34   20   21 ar
  35   21   22 ar
  36   23   40 1
  37   23   41 1
  38   23   42 1
  39   24   25 ar
  40   24   29 ar
  41   25   26 ar
  42   25   30 1
  43   26   27 ar
  44   26   43 1
  45   27   28 ar
  46   27   44 1
  47   28   29 ar
  48   28   45 1
  49   29   46 1
  50   30   31 1
  51   31   47 1
  52   31   48 1
  53   31   49 1

#	End of record

