#	Name: ASD03091786
#	Creating user name:	WinNT
#	Creation time:	15. 06. 2019 20:31

#	Modifying user name:	WinNT
#	Modification time:	15. 06. 2019 20:31

#	Program:	/corina/corina34_cracker 3.40 0067  02.08.2006

@<TRIPOS>MOLECULE
ASD03091786
  31   33    0    0    0
SMALL
NO_CHARGES


@<TRIPOS>ATOM
   1 C1            -0.0117     1.4708    -0.0311 C.3     
   2 C2             0.0574    -0.0563    -0.0969 C.3     
   3 N3             0.7557    -0.5677     1.0895 N.3     
   4 C4             0.0342    -0.2201     2.3203 C.3     
   5 C5            -0.0362     1.3019     2.4601 C.3     
   6 C6             1.3850     1.8709     2.5290 C.3     
   7 N7             2.0604     1.6101     1.2504 N.am    
   8 C8             1.4100     2.0415     0.0056 C.3     
   9 C9             3.2546     0.9861     1.2201 C.2     
  10 O10            3.7504     0.6726     0.1539 O.2     
  11 C11            3.9569     0.6848     2.4726 C.2     
  12 C12            5.0944    -0.0542     2.6102 C.2     
  13 C13           -0.7538     1.8901     1.2415 C.3     
  14 O14            3.6043     1.0914     3.7144 O.3     
  15 C15            4.5050     0.6028     4.5727 C.2     
  16 N16            5.3983    -0.0838     3.9118 N.2     
  17 H17           -0.5353     1.8508    -0.9083 H       
  18 H18           -0.9528    -0.4646    -0.1277 H       
  19 H19            0.5981    -0.3571    -0.9943 H       
  20 H20            0.8987    -1.5643     1.0233 H       
  21 H21           -0.9758    -0.6278     2.2766 H       
  22 H22            0.5581    -0.6398     3.1791 H       
  23 H23           -0.5776     1.5605     3.3701 H       
  24 H24            1.3403     2.9455     2.7062 H       
  25 H25            1.9335     1.3874     3.3373 H       
  26 H26            1.9750     1.6703    -0.8495 H       
  27 H27            1.3678     3.1302    -0.0264 H       
  28 H28            5.6483    -0.5289     1.8138 H       
  29 H29           -0.7646     2.9776     1.3151 H       
  30 H30           -1.7772     1.5166     1.2061 H       
  31 H31            4.4971     0.7541     5.6420 H       
@<TRIPOS>BOND
   1    1    2 1
   2    1    8 1
   3    1   13 1
   4    1   17 1
   5    2    3 1
   6    2   18 1
   7    2   19 1
   8    3    4 1
   9    3   20 1
  10    4    5 1
  11    4   21 1
  12    4   22 1
  13    5    6 1
  14    5   13 1
  15    5   23 1
  16    6    7 1
  17    6   24 1
  18    6   25 1
  19    7    8 1
  20    7    9 am
  21    8   26 1
  22    8   27 1
  23    9   10 2
  24    9   11 1
  25   11   12 2
  26   11   14 1
  27   12   16 1
  28   12   28 1
  29   13   29 1
  30   13   30 1
  31   14   15 1
  32   15   16 2
  33   15   31 1

#	End of record

