#	Name: ASD01240018
#	Creating user name:	WinNT
#	Creation time:	15. 06. 2019 19:15

#	Modifying user name:	WinNT
#	Modification time:	15. 06. 2019 19:15

#	Program:	/corina/corina34_cracker 3.40 0067  02.08.2006

@<TRIPOS>MOLECULE
ASD01240018
  50   53    0    0    0
SMALL
NO_CHARGES


@<TRIPOS>ATOM
   1 C1            -0.0167     1.3824     0.0096 C.ar    
   2 C2             0.0021    -0.0041     0.0020 C.ar    
   3 C3            -1.1899    -0.7103     0.0122 C.ar    
   4 C4            -2.4046    -0.0348     0.0299 C.ar    
   5 C5            -2.4239     1.3488     0.0333 C.ar    
   6 C6            -1.2268     2.0564     0.0306 C.ar    
   7 C7            -3.6802    -0.8384     0.0510 C.3     
   8 C8            -4.8549     0.0473    -0.3714 C.3     
   9 C9            -4.7794     1.3585     0.4213 C.3     
  10 O10           -3.5887     2.0481     0.0387 O.3     
  11 C11           -6.0146     2.9578    -1.0539 C.ar    
  12 C12           -5.9823     2.2107     0.1085 C.ar    
  13 C13           -7.0515     2.2431     0.9848 C.ar    
  14 C14           -8.1582     3.0256     0.6985 C.ar    
  15 C15           -8.1907     3.7780    -0.4721 C.ar    
  16 C16           -7.1162     3.7410    -1.3457 C.ar    
  17 C17           -4.6575     0.7954    -4.6015 C.ar    
  18 C18           -4.6166     1.0020    -5.9674 C.ar    
  19 C19           -5.2555     0.1121    -6.8270 C.ar    
  20 C20           -5.9372    -0.9880    -6.3133 C.ar    
  21 C21           -5.9814    -1.1996    -4.9482 C.ar    
  22 C22           -5.3411    -0.3080    -4.0831 C.ar    
  23 O23           -4.7686     0.3293    -1.7931 O.3     
  24 C24           -5.3865    -0.5311    -2.6260 C.2     
  25 O25           -5.9811    -1.4907    -2.1766 O.2     
  26 O26           -9.2747     4.5481    -0.7574 O.3     
  27 O27           -9.2107     3.0583     1.5590 O.3     
  28 O28            1.1502     2.0788     0.0022 O.3     
  29 O29           -1.1713    -2.0691     0.0046 O.3     
  30 O30           -6.5605    -1.8550    -7.1556 O.3     
  31 O31           -3.9520     2.0758    -6.4725 O.3     
  32 O32           -5.2140     0.3179    -8.1695 O.3     
  33 H33            0.9439    -0.5324    -0.0122 H       
  34 H34           -1.2406     3.1363     0.0367 H       
  35 H35           -3.5919    -1.6773    -0.6393 H       
  36 H36           -3.8545    -1.2157     1.0587 H       
  37 H37           -5.7946    -0.4602    -0.1534 H       
  38 H38           -4.7507     1.1409     1.4889 H       
  39 H39           -5.1756     2.9333    -1.7336 H       
  40 H40           -7.0240     1.6581     1.8922 H       
  41 H41           -7.1391     4.3236    -2.2548 H       
  42 H42           -4.1581     1.4835    -3.9355 H       
  43 H43           -6.5106    -2.0528    -4.5503 H       
  44 H44           -9.2178     5.4501    -0.4135 H       
  45 H45           -9.1452     3.7470     2.2346 H       
  46 H46            1.4795     2.2851    -0.8832 H       
  47 H47           -1.1555    -2.4673     0.8857 H       
  48 H48           -6.0020    -2.5873    -7.4502 H       
  49 H49           -3.0207     1.9050    -6.6692 H       
  50 H50           -4.4630    -0.1039    -8.6090 H       
@<TRIPOS>BOND
   1    1    2 ar
   2    1   28 1
   3    1    6 ar
   4    2    3 ar
   5    2   33 1
   6    3    4 ar
   7    3   29 1
   8    4    5 ar
   9    4    7 1
  10    5    6 ar
  11    5   10 1
  12    6   34 1
  13    7    8 1
  14    7   35 1
  15    7   36 1
  16    8    9 1
  17    8   23 1
  18    8   37 1
  19    9   10 1
  20    9   12 1
  21    9   38 1
  22   11   12 ar
  23   11   16 ar
  24   11   39 1
  25   12   13 ar
  26   13   14 ar
  27   13   40 1
  28   14   15 ar
  29   14   27 1
  30   15   16 ar
  31   15   26 1
  32   16   41 1
  33   17   18 ar
  34   17   22 ar
  35   17   42 1
  36   18   19 ar
  37   18   31 1
  38   19   20 ar
  39   19   32 1
  40   20   21 ar
  41   20   30 1
  42   21   22 ar
  43   21   43 1
  44   22   24 1
  45   23   24 1
  46   24   25 2
  47   26   44 1
  48   27   45 1
  49   28   46 1
  50   29   47 1
  51   30   48 1
  52   31   49 1
  53   32   50 1

#	End of record

