#	Name: ASD03330233
#	Creating user name:	WinNT
#	Creation time:	15. 06. 2019 20:36

#	Modifying user name:	WinNT
#	Modification time:	15. 06. 2019 20:36

#	Program:	/corina/corina34_cracker 3.40 0067  02.08.2006

@<TRIPOS>MOLECULE
ASD03330233
  54   56    0    0    0
SMALL
NO_CHARGES


@<TRIPOS>ATOM
   1 C1             0.4938     1.8101    -0.0624 C.3     
   2 N2             0.2500     0.3609    -0.0640 N.3     
   3 C3             0.7021    -0.2544    -1.3249 C.3     
   4 C4             2.1110     0.2103    -1.5900 C.2     
   5 N5             2.6891     1.2733    -0.9551 N.pl3   
   6 C6             1.9989     2.0847     0.0517 C.3     
   7 C7             3.0302    -0.2924    -2.4490 C.2     
   8 N8             4.1574     0.4594    -2.3320 N.2     
   9 C9             3.9542     1.3992    -1.4347 C.2     
  10 C10            4.9370     2.4217    -1.0184 C.2     
  11 C11            5.1688     2.7302     0.2714 C.2     
  12 C12            2.8426    -1.4450    -3.3472 C.2     
  13 O13            1.7815    -2.0394    -3.3603 O.2     
  14 O14            6.0174    -2.9740    -5.1624 O.2     
  15 C15            4.9995    -3.6027    -5.3609 C.2     
  16 C16            3.6603    -2.9869    -5.0475 C.3     
  17 N17            3.8468    -1.8408    -4.1543 N.am    
  18 C18            2.9976    -2.5198    -6.3450 C.3     
  19 C19            2.8475    -3.7077    -7.2974 C.3     
  20 C20            1.6170    -1.9392    -6.0323 C.3     
  21 C21            3.8656    -1.4452    -7.0028 C.3     
  22 N22            5.0661    -4.8522    -5.8617 N.am    
  23 C23            6.3617    -5.4216    -6.2403 C.3     
  24 S24            6.3597     3.9464     0.3905 S.3     
  25 C25            6.5321     4.0225    -1.3567 C.2     
  26 C26            5.7094     3.1467    -1.9294 C.2     
  27 C27            5.6130     2.9613    -3.4218 C.3     
  28 H28            0.1160     2.2421    -0.9891 H       
  29 H29           -0.0223     2.2633     0.7840 H       
  30 H30            0.6876    -0.0803     0.7309 H       
  31 H31            0.6835    -1.3403    -1.2326 H       
  32 H32            0.0513     0.0579    -2.1416 H       
  33 H33            2.1948     3.1414    -0.1301 H       
  34 H34            2.3483     1.8111     1.0473 H       
  35 H35            4.6705     2.2723     1.1131 H       
  36 H36            3.0249    -3.7270    -4.5610 H       
  37 H37            4.6930    -1.3667    -4.1438 H       
  38 H38            2.1890    -4.4518    -6.8492 H       
  39 H39            2.4208    -3.3658    -8.2403 H       
  40 H40            3.8258    -4.1519    -7.4812 H       
  41 H41            1.7239    -1.0929    -5.3537 H       
  42 H42            1.1448    -1.6065    -6.9566 H       
  43 H43            0.9986    -2.7048    -5.5636 H       
  44 H44            4.8491    -1.8587    -7.2256 H       
  45 H45            3.3935    -1.1124    -7.9272 H       
  46 H46            3.9725    -0.5988    -6.3243 H       
  47 H47            4.2561    -5.3745    -5.9715 H       
  48 H48            6.8183    -4.8034    -7.0132 H       
  49 H49            7.0139    -5.4526    -5.3675 H       
  50 H50            6.2169    -6.4323    -6.6218 H       
  51 H51            7.2071     4.6785    -1.8861 H       
  52 H52            6.3248     2.1996    -3.7401 H       
  53 H53            4.6029     2.6471    -3.6845 H       
  54 H54            5.8417     3.9032    -3.9205 H       
@<TRIPOS>BOND
   1    1    2 1
   2    1    6 1
   3    1   28 1
   4    1   29 1
   5    2    3 1
   6    2   30 1
   7    3    4 1
   8    3   31 1
   9    3   32 1
  10    4    5 1
  11    4    7 2
  12    5    6 1
  13    5    9 1
  14    6   33 1
  15    6   34 1
  16    7    8 1
  17    7   12 1
  18    8    9 2
  19    9   10 1
  20   10   11 2
  21   10   26 1
  22   11   24 1
  23   11   35 1
  24   12   13 2
  25   12   17 am
  26   14   15 2
  27   15   22 am
  28   15   16 1
  29   16   17 1
  30   16   18 1
  31   16   36 1
  32   17   37 1
  33   18   19 1
  34   18   20 1
  35   18   21 1
  36   19   38 1
  37   19   39 1
  38   19   40 1
  39   20   41 1
  40   20   42 1
  41   20   43 1
  42   21   44 1
  43   21   45 1
  44   21   46 1
  45   22   23 1
  46   22   47 1
  47   23   48 1
  48   23   49 1
  49   23   50 1
  50   24   25 1
  51   25   26 2
  52   25   51 1
  53   26   27 1
  54   27   52 1
  55   27   53 1
  56   27   54 1

#	End of record

