#	Name: ASD01208562
#	Creating user name:	WinNT
#	Creation time:	15. 06. 2019 19:10

#	Modifying user name:	WinNT
#	Modification time:	15. 06. 2019 19:10

#	Program:	/corina/corina34_cracker 3.40 0067  02.08.2006

@<TRIPOS>MOLECULE
ASD01208562
  63   63    0    0    0
SMALL
NO_CHARGES


@<TRIPOS>ATOM
   1 C1            -1.8023     1.1166    -3.6505 C.2     
   2 N2            -1.4842    -0.0572    -3.0695 N.am    
   3 O3            -0.9799     2.0209    -3.6926 O.co2   
   4 O4            -2.9118     1.2757    -4.1401 O.co2   
   5 C5             0.2811     0.8521    -1.6418 C.3     
   6 C6            -0.1226    -0.2870    -2.5801 C.3     
   7 C7             0.8435    -0.3380    -3.7654 C.3     
   8 C8             2.2308    -0.7573    -3.2749 C.3     
   9 O9             3.1036    -0.9180    -4.3949 O.3     
  10 Si10           4.6005    -1.4320    -4.0011 Si      
  11 C11            5.2727    -1.8138    -6.6684 C.3     
  12 C12            5.7661    -1.0904    -5.4137 C.3     
  13 C13            5.8171     0.4154    -5.6801 C.3     
  14 C14            6.6626    -0.8498    -2.2345 C.3     
  15 C15            5.1868    -0.5298    -2.4802 C.3     
  16 C16            5.0189     0.9772    -2.6848 C.3     
  17 C17            3.8593    -3.5164    -2.3225 C.3     
  18 C18            4.5586    -3.2629    -3.6595 C.3     
  19 C19            3.7934    -3.9730    -4.7780 C.3     
  20 O20            0.9229     0.9538    -4.3712 O.3     
  21 C21           -2.5000    -1.1032    -2.9273 C.3     
  22 C22           -2.4819    -1.9899    -4.1457 C.ar    
  23 C23           -1.6681    -3.1069    -4.1756 C.ar    
  24 C24           -1.6515    -3.9202    -5.2933 C.ar    
  25 C25           -2.4491    -3.6168    -6.3808 C.ar    
  26 C26           -3.2636    -2.5003    -6.3505 C.ar    
  27 C27           -3.2834    -1.6894    -5.2311 C.ar    
  28 H28            1.2942     0.6811    -1.2777 H       
  29 H29            0.2439     1.7982    -2.1818 H       
  30 H30           -0.4072     0.8885    -0.7973 H       
  31 H31           -0.0854    -1.2330    -2.0401 H       
  32 H32            0.4830    -1.0610    -4.4971 H       
  33 H33            2.6289     0.0102    -2.6112 H       
  34 H34            2.1553    -1.7011    -2.7348 H       
  35 H35            5.8262    -1.4549    -7.5361 H       
  36 H36            5.4303    -2.8863    -6.5550 H       
  37 H37            4.2100    -1.6155    -6.8079 H       
  38 H38            6.7632    -1.4479    -5.1567 H       
  39 H39            6.3301     0.9128    -4.8569 H       
  40 H40            6.3553     0.6020    -6.6094 H       
  41 H41            4.8022     0.8042    -5.7637 H       
  42 H42            7.2514    -0.5322    -3.0950 H       
  43 H43            7.0056    -0.3220    -1.3447 H       
  44 H44            6.7822    -1.9234    -2.0888 H       
  45 H45            4.5979    -0.8475    -1.6197 H       
  46 H46            5.7228     1.3217    -3.4423 H       
  47 H47            4.0008     1.1883    -3.0120 H       
  48 H48            5.2135     1.4952    -1.7457 H       
  49 H49            2.7958    -3.2989    -2.4217 H       
  50 H50            3.9915    -4.5595    -2.0353 H       
  51 H51            4.2923    -2.8713    -1.5579 H       
  52 H52            5.5775    -3.6477    -3.6153 H       
  53 H53            2.8418    -3.4681    -4.9445 H       
  54 H54            4.3831    -3.9481    -5.6943 H       
  55 H55            3.6100    -5.0087    -4.4920 H       
  56 H56            1.2373     1.6485    -3.7765 H       
  57 H57           -2.2855    -1.6998    -2.0406 H       
  58 H58           -3.4832    -0.6436    -2.8269 H       
  59 H59           -1.0450    -3.3440    -3.3260 H       
  60 H60           -1.0152    -4.7925    -5.3170 H       
  61 H61           -2.4356    -4.2518    -7.2543 H       
  62 H62           -3.8865    -2.2630    -7.2003 H       
  63 H63           -3.9225    -0.8191    -5.2060 H       
@<TRIPOS>BOND
   1    1    2 am
   2    1    3 ar
   3    1    4 ar
   4    2    6 1
   5    2   21 1
   6    5    6 1
   7    5   28 1
   8    5   29 1
   9    5   30 1
  10    6    7 1
  11    6   31 1
  12    7    8 1
  13    7   20 1
  14    7   32 1
  15    8    9 1
  16    8   33 1
  17    8   34 1
  18    9   10 1
  19   10   12 1
  20   10   15 1
  21   10   18 1
  22   11   12 1
  23   11   35 1
  24   11   36 1
  25   11   37 1
  26   12   13 1
  27   12   38 1
  28   13   39 1
  29   13   40 1
  30   13   41 1
  31   14   15 1
  32   14   42 1
  33   14   43 1
  34   14   44 1
  35   15   16 1
  36   15   45 1
  37   16   46 1
  38   16   47 1
  39   16   48 1
  40   17   18 1
  41   17   49 1
  42   17   50 1
  43   17   51 1
  44   18   19 1
  45   18   52 1
  46   19   53 1
  47   19   54 1
  48   19   55 1
  49   20   56 1
  50   21   22 1
  51   21   57 1
  52   21   58 1
  53   22   23 ar
  54   22   27 ar
  55   23   24 ar
  56   23   59 1
  57   24   25 ar
  58   24   60 1
  59   25   26 ar
  60   25   61 1
  61   26   27 ar
  62   26   62 1
  63   27   63 1

#	End of record

