#	Name: ASD01918439
#	Creating user name:	WinNT
#	Creation time:	15. 06. 2019 20:11

#	Modifying user name:	WinNT
#	Modification time:	15. 06. 2019 20:11

#	Program:	/corina/corina34_cracker 3.40 0067  02.08.2006

@<TRIPOS>MOLECULE
ASD01918439
  59   63    0    0    0
SMALL
NO_CHARGES


@<TRIPOS>ATOM
   1 C1             0.0359     1.7221    -0.3186 C.3     
   2 C2             0.1667     0.2230    -0.2361 C.ar    
   3 C3             0.0781    -0.5402    -1.3821 C.ar    
   4 C4             0.1997    -1.9264    -1.3047 C.ar    
   5 C5             0.4103    -2.5353    -0.0693 C.ar    
   6 C6             0.4975    -1.7641     1.0719 C.ar    
   7 C7             0.3814    -0.3863     0.9896 C.ar    
   8 F8             0.4730     0.3653     2.1085 F       
   9 C9             0.1047    -2.7515    -2.5344 C.2     
  10 C10            0.2000    -4.1067    -2.5963 C.2     
  11 N11            0.0578    -4.4559    -3.9107 N.pl3   
  12 C12            0.0904    -5.8146    -4.4574 C.3     
  13 C13            1.4981    -6.1547    -4.8743 C.2     
  14 O14            2.3866    -5.3421    -4.7291 O.2     
  15 N15            1.7696    -7.3619    -5.4086 N.am    
  16 C16            3.1353    -7.7278    -5.8207 C.3     
  17 C17            3.5775    -8.9344    -4.9904 C.3     
  18 N18            2.5332    -9.9491    -4.9571 N.am    
  19 C19            1.2406    -9.7132    -5.1863 C.2     
  20 O20            0.4532   -10.6257    -5.0516 O.2     
  21 C21            0.7154    -8.3694    -5.5981 C.3     
  22 C22            2.9112   -11.2590    -4.6655 C.ar    
  23 C23            4.2263   -11.5329    -4.3128 C.ar    
  24 C24            4.5885   -12.8403    -4.0249 C.ar    
  25 F25            5.8579   -13.1455    -3.6777 F       
  26 C26            3.6141   -13.8297    -4.1017 C.ar    
  27 C27            2.3269   -13.4831    -4.4591 C.ar    
  28 N28            2.0118   -12.2292    -4.7223 N.ar    
  29 C29           -0.1209    -3.3025    -4.6182 C.2     
  30 N30           -0.0966    -2.2899    -3.7822 N.2     
  31 C31           -0.3158    -3.2091    -6.0812 C.ar    
  32 C32            0.0493    -4.2743    -6.9056 C.ar    
  33 C33           -0.1350    -4.1823    -8.2693 C.ar    
  34 C34           -0.6818    -3.0346    -8.8212 C.ar    
  35 F35           -0.8607    -2.9497   -10.1576 F       
  36 C36           -1.0461    -1.9740    -8.0069 C.ar    
  37 C37           -0.8709    -2.0578    -6.6415 C.ar    
  38 H38            1.0195     2.1645    -0.4760 H       
  39 H39           -0.6179     1.9845    -1.1503 H       
  40 H40           -0.3886     2.1014     0.6110 H       
  41 H41           -0.0855    -0.0641    -2.3376 H       
  42 H42            0.5047    -3.6093    -0.0048 H       
  43 H43            0.6607    -2.2353     2.0299 H       
  44 H44            0.3583    -4.7789    -1.7659 H       
  45 H45           -0.2438    -6.5204    -3.6969 H       
  46 H46           -0.5693    -5.8739    -5.3231 H       
  47 H47            3.1430    -7.9871    -6.8793 H       
  48 H48            3.8102    -6.8909    -5.6415 H       
  49 H49            4.4788    -9.3615    -5.4301 H       
  50 H50            3.7947    -8.6095    -3.9729 H       
  51 H51           -0.1492    -8.1126    -4.9860 H       
  52 H52            0.4250    -8.4008    -6.6483 H       
  53 H53            4.9568   -10.7389    -4.2637 H       
  54 H54            3.8621   -14.8582    -3.8843 H       
  55 H55            1.5667   -14.2478    -4.5204 H       
  56 H56            0.4759    -5.1689    -6.4765 H       
  57 H57            0.1476    -5.0059    -8.9082 H       
  58 H58           -1.4714    -1.0817    -8.4420 H       
  59 H59           -1.1592    -1.2325    -6.0074 H       
@<TRIPOS>BOND
   1    1    2 1
   2    1   38 1
   3    1   39 1
   4    1   40 1
   5    2    7 ar
   6    2    3 ar
   7    3    4 ar
   8    3   41 1
   9    4    5 ar
  10    4    9 1
  11    5    6 ar
  12    5   42 1
  13    6    7 ar
  14    6   43 1
  15    7    8 1
  16    9   30 1
  17    9   10 2
  18   10   11 1
  19   10   44 1
  20   11   12 1
  21   11   29 1
  22   12   13 1
  23   12   45 1
  24   12   46 1
  25   13   14 2
  26   13   15 am
  27   15   21 1
  28   15   16 1
  29   16   17 1
  30   16   47 1
  31   16   48 1
  32   17   18 1
  33   17   49 1
  34   17   50 1
  35   18   19 am
  36   18   22 1
  37   19   20 2
  38   19   21 1
  39   21   51 1
  40   21   52 1
  41   22   28 ar
  42   22   23 ar
  43   23   24 ar
  44   23   53 1
  45   24   25 1
  46   24   26 ar
  47   26   27 ar
  48   26   54 1
  49   27   28 ar
  50   27   55 1
  51   29   30 2
  52   29   31 1
  53   31   37 ar
  54   31   32 ar
  55   32   33 ar
  56   32   56 1
  57   33   34 ar
  58   33   57 1
  59   34   35 1
  60   34   36 ar
  61   36   37 ar
  62   36   58 1
  63   37   59 1

#	End of record

