#	Name: ASD09740701
#	Creating user name:	WinNT
#	Creation time:	15. 06. 2019 21:23

#	Modifying user name:	WinNT
#	Modification time:	15. 06. 2019 21:23

#	Program:	/corina/corina34_cracker 3.40 0067  02.08.2006

@<TRIPOS>MOLECULE
ASD09740701
  63   66    0    0    0
SMALL
NO_CHARGES


@<TRIPOS>ATOM
   1 C1            -1.6322     1.8638    -1.6878 C.2     
   2 C2            -1.3266     0.3986    -1.5124 C.3     
   3 O3            -0.7468     2.6363    -1.9881 O.2     
   4 N4            -2.8907     2.3149    -1.5163 N.am    
   5 C5            -3.1878     3.7393    -1.6868 C.3     
   6 C6            -3.9614     1.3808    -1.1595 C.3     
   7 S7             0.4381     0.1084    -1.8162 S.o2    
   8 O8             0.7484     0.3136    -3.1876 O.2     
   9 O9             1.2244     0.6998    -0.7908 O.2     
  10 N10            0.6335    -1.5207    -1.5925 N.am    
  11 C11           -0.0236    -2.4682    -2.4961 C.3     
  12 C12           -0.4607    -3.7305    -1.7230 C.3     
  13 C13           -0.2573    -4.8460    -2.7702 C.3     
  14 C14            0.8199    -4.3261    -3.6977 C.ar    
  15 C15            1.6275    -5.0020    -4.6173 C.ar    
  16 C16            2.5643    -4.2956    -5.3711 C.ar    
  17 C17            2.6892    -2.9316    -5.2049 C.ar    
  18 C18            1.8888    -2.2682    -4.2942 C.ar    
  19 C19            0.9544    -2.9624    -3.5409 C.ar    
  20 S20            2.4206    -7.4716    -5.8989 S.3     
  21 C21            1.4889    -6.4635    -4.7901 C.2     
  22 N22            0.6557    -7.2377    -4.1490 N.2     
  23 N23            0.6719    -8.4688    -4.4221 N.2     
  24 C24            1.5213    -8.8778    -5.3263 C.2     
  25 C25            1.6981   -10.2708    -5.7874 C.ar    
  26 C26            0.9158   -11.2879    -5.2463 C.ar    
  27 C27            1.0868   -12.6000    -5.6850 C.ar    
  28 C28            2.0459   -12.8860    -6.6683 C.ar    
  29 C29            2.8197   -11.8647    -7.2004 C.ar    
  30 C30            2.6465   -10.5665    -6.7708 C.ar    
  31 O31            2.2169   -14.1612    -7.0986 O.3     
  32 C32            3.2905   -14.3996    -8.0110 C.3     
  33 C33            3.7337   -15.8603    -7.9067 C.3     
  34 C34            2.8209   -14.1098    -9.4380 C.3     
  35 C35            0.2870   -13.6521    -5.1336 C.1     
  36 N36           -0.3475   -14.4868    -4.6962 N.1     
  37 H37           -1.5750     0.0948    -0.4955 H       
  38 H38           -1.9175    -0.1831    -2.2200 H       
  39 H39           -3.4545     3.9330    -2.7258 H       
  40 H40           -4.0203     4.0167    -1.0402 H       
  41 H41           -2.3097     4.3279    -1.4213 H       
  42 H42           -4.0339     1.3087    -0.0743 H       
  43 H43           -4.9074     1.7410    -1.5637 H       
  44 H44           -3.7394     0.3978    -1.5749 H       
  45 H45            1.1831    -1.8476    -0.8631 H       
  46 H46           -0.8842    -2.0008    -2.9747 H       
  47 H47            0.1772    -3.8933    -0.8543 H       
  48 H48           -1.5080    -3.6615    -1.4287 H       
  49 H49            0.0723    -5.7648    -2.2851 H       
  50 H50           -1.1808    -5.0193    -3.3226 H       
  51 H51            3.1900    -4.8145    -6.0822 H       
  52 H52            3.4138    -2.3816    -5.7871 H       
  53 H53            1.9921    -1.2005    -4.1683 H       
  54 H54            0.1796   -11.0611    -4.4894 H       
  55 H55            3.5573   -12.0870    -7.9572 H       
  56 H56            3.2491    -9.7755    -7.1922 H       
  57 H57            4.1283   -13.7472    -7.7647 H       
  58 H58            2.8959   -16.5126    -8.1530 H       
  59 H59            4.5526   -16.0421    -8.6027 H       
  60 H60            4.0682   -16.0667    -6.8900 H       
  61 H61            1.9831   -14.7622    -9.6844 H       
  62 H62            2.5051   -13.0692    -9.5124 H       
  63 H63            3.6398   -14.2916   -10.1340 H       
@<TRIPOS>BOND
   1    1    2 1
   2    1    3 2
   3    1    4 am
   4    2    7 1
   5    2   37 1
   6    2   38 1
   7    4    5 1
   8    4    6 1
   9    5   39 1
  10    5   40 1
  11    5   41 1
  12    6   42 1
  13    6   43 1
  14    6   44 1
  15    7    8 2
  16    7    9 2
  17    7   10 am
  18   10   11 1
  19   10   45 1
  20   11   12 1
  21   11   19 1
  22   11   46 1
  23   12   13 1
  24   12   47 1
  25   12   48 1
  26   13   14 1
  27   13   49 1
  28   13   50 1
  29   14   15 ar
  30   14   19 ar
  31   15   16 ar
  32   15   21 1
  33   16   17 ar
  34   16   51 1
  35   17   18 ar
  36   17   52 1
  37   18   19 ar
  38   18   53 1
  39   20   21 1
  40   20   24 1
  41   21   22 2
  42   22   23 1
  43   23   24 2
  44   24   25 1
  45   25   26 ar
  46   25   30 ar
  47   26   27 ar
  48   26   54 1
  49   27   28 ar
  50   27   35 1
  51   28   29 ar
  52   28   31 1
  53   29   30 ar
  54   29   55 1
  55   30   56 1
  56   31   32 1
  57   32   33 1
  58   32   34 1
  59   32   57 1
  60   33   58 1
  61   33   59 1
  62   33   60 1
  63   34   61 1
  64   34   62 1
  65   34   63 1
  66   35   36 3

#	End of record

