#	Name: ASD01209278
#	Creating user name:	WinNT
#	Creation time:	15. 06. 2019 19:11

#	Modifying user name:	WinNT
#	Modification time:	15. 06. 2019 19:11

#	Program:	/corina/corina34_cracker 3.40 0067  02.08.2006

@<TRIPOS>MOLECULE
ASD01209278
  70   72    0    0    0
SMALL
NO_CHARGES


@<TRIPOS>ATOM
   1 C1             0.1724     1.1615    -0.0861 C.3     
   2 C2             0.2139    -0.3402     0.0324 C.ar    
   3 C3            -0.3090    -1.1279    -0.9761 C.ar    
   4 C4            -0.2709    -2.5054    -0.8673 C.ar    
   5 C5             0.2904    -3.0953     0.2497 C.ar    
   6 C6             0.8142    -2.3077     1.2578 C.ar    
   7 C7             0.7800    -0.9302     1.1471 C.ar    
   8 S8             0.3379    -4.8512     0.3889 S.o2    
   9 O9             0.3689    -5.0910     1.7891 O.2     
  10 O10           -0.7527    -5.2953    -0.4065 O.2     
  11 C11            1.9150    -5.3231    -0.3729 C.3     
  12 C12            1.5768     1.7071    -0.0528 C.2     
  13 O13            2.5107     0.9648     0.1661 O.2     
  14 N14            1.7951     3.0198    -0.2663 N.am    
  15 C15            3.0761     3.5422    -0.1318 C.2     
  16 C16            7.1588     5.9455    -1.6637 C.3     
  17 P17            5.8944     6.5788    -2.8143 P.3     
  18 O18            4.6860     5.7278    -2.7364 O.2     
  19 O19            5.5128     8.0906    -2.4132 O.3     
  20 O20            6.4738     6.5520    -4.3162 O.3     
  21 C21            5.6867     6.8890    -5.4602 C.3     
  22 C22            6.5408     6.7597    -6.7230 C.3     
  23 C23           -0.6285     1.7433     1.0805 C.3     
  24 C24           -2.0860     1.2902     0.9747 C.3     
  25 C25           -2.8712     1.7458     2.2172 C.3     
  26 C26           -3.9948     2.6745     1.7124 C.3     
  27 C27           -4.2034     2.2512     0.2372 C.3     
  28 C28           -2.7599     1.9580    -0.2418 C.3     
  29 S29            6.5059     5.9758     0.0284 S.o2    
  30 C30            4.4749     8.8292    -3.0606 C.3     
  31 C31            4.3772    10.2237    -2.4388 C.3     
  32 S32            3.4950     5.1824    -0.3716 S.3     
  33 C33            5.1767     4.8193     0.0076 C.2     
  34 C34            5.2680     3.5154     0.2762 C.2     
  35 N35            4.1261     2.8579     0.1992 N.2     
  36 O36            7.4448     5.4142     0.9353 O.2     
  37 O37            5.8811     7.2229     0.2996 O.2     
  38 H38           -0.3028     1.4387    -1.0271 H       
  39 H39           -0.7476    -0.6670    -1.8488 H       
  40 H40           -0.6801    -3.1207    -1.6549 H       
  41 H41            1.2524    -2.7685     2.1307 H       
  42 H42            1.1892    -0.3148     1.9346 H       
  43 H43            2.7353    -4.8499     0.1668 H       
  44 H44            2.0293    -6.4063    -0.3305 H       
  45 H45            1.9283    -4.9968    -1.4129 H       
  46 H46            1.0582     3.6000    -0.5137 H       
  47 H47            7.4171     4.9220    -1.9353 H       
  48 H48            8.0487     6.5723    -1.7211 H       
  49 H49            4.8346     6.2126    -5.5271 H       
  50 H50            5.3299     7.9147    -5.3663 H       
  51 H51            5.9404     7.0168    -7.5956 H       
  52 H52            7.3929     7.4361    -6.6561 H       
  53 H53            6.8976     5.7341    -6.8168 H       
  54 H54           -0.2063     1.3920     2.0221 H       
  55 H55           -0.5828     2.8318     1.0456 H       
  56 H56           -2.1336     0.2054     0.8799 H       
  57 H57           -3.3005     0.8821     2.7249 H       
  58 H58           -2.2138     2.2896     2.8956 H       
  59 H59           -4.9073     2.5166     2.2873 H       
  60 H60           -3.6824     3.7172     1.7695 H       
  61 H61           -4.8203     1.3546     0.1761 H       
  62 H62           -4.6441     3.0645    -0.3395 H       
  63 H63           -2.2481     2.8850    -0.5002 H       
  64 H64           -2.7712     1.2773    -1.0930 H       
  65 H65            4.7019     8.9201    -4.1229 H       
  66 H66            3.5257     8.3082    -2.9353 H       
  67 H67            4.1501    10.1328    -1.3766 H       
  68 H68            5.3264    10.7447    -2.5642 H       
  69 H69            3.5855    10.7871    -2.9327 H       
  70 H70            6.2001     3.0375     0.5394 H       
@<TRIPOS>BOND
   1    1    2 1
   2    1   12 1
   3    1   23 1
   4    1   38 1
   5    2    3 ar
   6    2    7 ar
   7    3    4 ar
   8    3   39 1
   9    4    5 ar
  10    4   40 1
  11    5    6 ar
  12    5    8 1
  13    6    7 ar
  14    6   41 1
  15    7   42 1
  16    8    9 2
  17    8   10 2
  18    8   11 1
  19   11   43 1
  20   11   44 1
  21   11   45 1
  22   12   13 2
  23   12   14 am
  24   14   15 1
  25   14   46 1
  26   15   32 1
  27   15   35 2
  28   16   17 1
  29   16   29 1
  30   16   47 1
  31   16   48 1
  32   17   18 2
  33   17   19 1
  34   17   20 1
  35   19   30 1
  36   20   21 1
  37   21   22 1
  38   21   49 1
  39   21   50 1
  40   22   51 1
  41   22   52 1
  42   22   53 1
  43   23   24 1
  44   23   54 1
  45   23   55 1
  46   24   25 1
  47   24   28 1
  48   24   56 1
  49   25   26 1
  50   25   57 1
  51   25   58 1
  52   26   27 1
  53   26   59 1
  54   26   60 1
  55   27   28 1
  56   27   61 1
  57   27   62 1
  58   28   63 1
  59   28   64 1
  60   29   36 2
  61   29   37 2
  62   29   33 1
  63   30   31 1
  64   30   65 1
  65   30   66 1
  66   31   67 1
  67   31   68 1
  68   31   69 1
  69   32   33 1
  70   33   34 2
  71   34   35 1
  72   34   70 1

#	End of record

