#	Name: ASD03081180
#	Creating user name:	WinNT
#	Creation time:	15. 06. 2019 20:27

#	Modifying user name:	WinNT
#	Modification time:	15. 06. 2019 20:27

#	Program:	/corina/corina34_cracker 3.40 0067  02.08.2006

@<TRIPOS>MOLECULE
ASD03081180
  50   52    0    0    0
SMALL
NO_CHARGES


@<TRIPOS>ATOM
   1 C1             0.1973     2.2472    -0.8655 C.3     
   2 C2            -0.3163     0.8093    -0.7413 C.3     
   3 N3             0.6014    -0.0844    -1.4609 N.am    
   4 C4             2.0329    -0.0394    -1.1327 C.3     
   5 C5             2.5210     1.4077    -1.2526 C.3     
   6 C6             1.6470     2.3113    -0.3808 C.3     
   7 C7             2.1524     3.7533    -0.4730 C.3     
   8 C8             1.3140     4.6424     0.4484 C.3     
   9 N9             1.4191     4.1545     1.8294 N.3     
  10 C10            0.8949     2.7882     1.9515 C.3     
  11 C11            1.7201     1.8434     1.0748 C.3     
  12 C12            0.1390    -0.9294    -2.4036 C.2     
  13 O13           -1.0572    -1.0275    -2.5981 O.2     
  14 N14            1.0026    -1.6657    -3.1306 N.am    
  15 C15            0.7404     5.0640     2.7622 C.3     
  16 C16            0.5214    -2.6516    -4.0028 C.ar    
  17 C17            1.1959    -2.9211    -5.1863 C.ar    
  18 C18            0.7209    -3.8931    -6.0456 C.ar    
  19 C19           -0.4305    -4.5999    -5.7255 C.ar    
  20 C20           -1.1038    -4.3306    -4.5437 C.ar    
  21 C21           -0.6263    -3.3628    -3.6812 C.ar    
  22 O22           -0.8984    -5.5563    -6.5716 O.3     
  23 C23           -2.0878    -6.2442    -6.1792 C.3     
  24 Cl24           1.5632    -4.2302    -7.5256 Cl      
  25 H25            0.1481     2.5622    -1.9079 H       
  26 H26           -0.4195     2.9077    -0.2561 H       
  27 H27           -0.3543     0.5244     0.3101 H       
  28 H28           -1.3127     0.7382    -1.1776 H       
  29 H29            2.1853    -0.3932    -0.1130 H       
  30 H30            2.5871    -0.6707    -1.8273 H       
  31 H31            3.5566     1.4711    -0.9183 H       
  32 H32            2.4536     1.7294    -2.2918 H       
  33 H33            3.1973     3.7931    -0.1651 H       
  34 H34            2.0614     4.1058    -1.5004 H       
  35 H35            1.6809     5.6675     0.3964 H       
  36 H36            0.2716     4.6134     0.1312 H       
  37 H37            0.9576     2.4667     2.9911 H       
  38 H38           -0.1457     2.7682     1.6275 H       
  39 H39            1.3201     0.8324     1.1526 H       
  40 H40            2.7579     1.8514     1.4079 H       
  41 H41            1.9572    -1.5133    -3.0502 H       
  42 H42           -0.3142     5.1365     2.4964 H       
  43 H43            0.8336     4.6790     3.7777 H       
  44 H44            1.1983     6.0515     2.7047 H       
  45 H45            2.0913    -2.3708    -5.4351 H       
  46 H46           -1.9994    -4.8807    -4.2953 H       
  47 H47           -1.1484    -3.1568    -2.7585 H       
  48 H48           -2.3512    -6.9782    -6.9407 H       
  49 H49           -1.9178    -6.7512    -5.2293 H       
  50 H50           -2.9019    -5.5279    -6.0680 H       
@<TRIPOS>BOND
   1    1    2 1
   2    1    6 1
   3    1   25 1
   4    1   26 1
   5    2    3 1
   6    2   27 1
   7    2   28 1
   8    3    4 1
   9    3   12 am
  10    4    5 1
  11    4   29 1
  12    4   30 1
  13    5    6 1
  14    5   31 1
  15    5   32 1
  16    6    7 1
  17    6   11 1
  18    7    8 1
  19    7   33 1
  20    7   34 1
  21    8    9 1
  22    8   35 1
  23    8   36 1
  24    9   10 1
  25    9   15 1
  26   10   11 1
  27   10   37 1
  28   10   38 1
  29   11   39 1
  30   11   40 1
  31   12   13 2
  32   12   14 am
  33   14   16 1
  34   14   41 1
  35   15   42 1
  36   15   43 1
  37   15   44 1
  38   16   17 ar
  39   16   21 ar
  40   17   18 ar
  41   17   45 1
  42   18   19 ar
  43   18   24 1
  44   19   20 ar
  45   19   22 1
  46   20   21 ar
  47   20   46 1
  48   21   47 1
  49   22   23 1
  50   23   48 1
  51   23   49 1
  52   23   50 1

#	End of record

