#	Name: ASD01881915
#	Creating user name:	WinNT
#	Creation time:	15. 06. 2019 19:43

#	Modifying user name:	WinNT
#	Modification time:	15. 06. 2019 19:43

#	Program:	/corina/corina34_cracker 3.40 0067  02.08.2006

@<TRIPOS>MOLECULE
ASD01881915
  43   46    0    0    0
SMALL
NO_CHARGES


@<TRIPOS>ATOM
   1 N1            -0.0154     1.2839     0.0091 N.pl3   
   2 N2             0.0021    -0.0041     0.0020 N.2     
   3 N3             1.2033    -0.4649    -0.0119 N.2     
   4 C4             2.0741     0.5645    -0.0147 C.ar    
   5 C5             1.2843     1.7298    -0.0009 C.ar    
   6 C6             3.4670     0.6759    -0.0271 C.ar    
   7 C7             4.0484     1.9285    -0.0255 C.ar    
   8 C8             3.2560     3.0739    -0.0118 C.ar    
   9 C9             1.8924     2.9784    -0.0004 C.ar    
  10 O10            5.4033     2.0444    -0.0370 O.3     
  11 C11            5.9411     3.3683    -0.0346 C.3     
  12 C12            7.4694     3.2979    -0.0487 C.3     
  13 N13            7.9204     2.6975    -1.3113 N.3     
  14 C14            9.3853     2.8286    -1.4671 C.3     
  15 C15            9.6645     3.0189    -2.9695 C.3     
  16 C16            8.2726     3.0186    -3.6421 C.3     
  17 C17            7.3247     3.3992    -2.4770 C.3     
  18 F18            8.2146     3.9761    -4.6604 F       
  19 F19           10.4396     1.9612    -3.4571 F       
  20 C20           -1.2133     2.1272     0.0196 C.3     
  21 C21           -1.6228     2.4135     1.4657 C.3     
  22 C22           -2.7884     3.3784     1.6921 C.3     
  23 C23           -2.9777     1.8797     1.9352 C.3     
  24 Br24           4.5472    -0.8761    -0.0451 Br      
  25 H25            3.7236     4.0474    -0.0103 H       
  26 H26            1.2882     3.8735     0.0099 H       
  27 H27            5.5939     3.9031    -0.9187 H       
  28 H28            5.6098     3.8935     0.8612 H       
  29 H29            7.8803     4.3034     0.0426 H       
  30 H30            7.8128     2.6879     0.7868 H       
  31 H31            9.7418     3.6953    -0.9105 H       
  32 H32            9.8791     1.9252    -1.1091 H       
  33 H33           10.1684     3.9697    -3.1432 H       
  34 H34            8.0309     2.0283    -4.0281 H       
  35 H35            6.3147     3.0373    -2.6689 H       
  36 H36            7.3244     4.4775    -2.3180 H       
  37 H37           -1.0007     3.0667    -0.4906 H       
  38 H38           -2.0254     1.6113    -0.4926 H       
  39 H39           -0.8089     2.4286     2.1906 H       
  40 H40           -2.7415     4.0280     2.5661 H       
  41 H41           -3.2635     3.8093     0.8108 H       
  42 H42           -3.5773     1.3246     1.2137 H       
  43 H43           -3.0553     1.5434     2.9691 H       
@<TRIPOS>BOND
   1    1    2 1
   2    1    5 1
   3    1   20 1
   4    2    3 2
   5    3    4 1
   6    4    5 ar
   7    4    6 ar
   8    5    9 ar
   9    6    7 ar
  10    6   24 1
  11    7    8 ar
  12    7   10 1
  13    8    9 ar
  14    8   25 1
  15    9   26 1
  16   10   11 1
  17   11   12 1
  18   11   27 1
  19   11   28 1
  20   12   13 1
  21   12   29 1
  22   12   30 1
  23   13   14 1
  24   13   17 1
  25   14   15 1
  26   14   31 1
  27   14   32 1
  28   15   16 1
  29   15   19 1
  30   15   33 1
  31   16   17 1
  32   16   18 1
  33   16   34 1
  34   17   35 1
  35   17   36 1
  36   20   21 1
  37   20   37 1
  38   20   38 1
  39   21   22 1
  40   21   23 1
  41   21   39 1
  42   22   23 1
  43   22   40 1
  44   22   41 1
  45   23   42 1
  46   23   43 1

#	End of record

