#	Name: ASD04590470
#	Creating user name:	WinNT
#	Creation time:	15. 06. 2019 20:50

#	Modifying user name:	WinNT
#	Modification time:	15. 06. 2019 20:50

#	Program:	/corina/corina34_cracker 3.40 0067  02.08.2006

@<TRIPOS>MOLECULE
ASD04590470
  63   67    0    0    0
SMALL
NO_CHARGES


@<TRIPOS>ATOM
   1 C1            -0.2560     1.6007     0.1024 C.ar    
   2 C2            -0.2458     0.2273     0.3554 C.ar    
   3 C3            -2.5917     0.1143    -0.1561 C.ar    
   4 C4            -2.5985     1.4986    -0.3982 C.ar    
   5 C5            -1.4268     2.2322    -0.2724 C.ar    
   6 N6            -3.8570    -0.3335    -0.3513 N.2     
   7 C7            -4.6313     0.6677    -0.6925 C.2     
   8 N8            -3.8999     1.8249    -0.7358 N.pl3   
   9 C9            -6.0755     0.5634    -0.9870 C.2     
  10 C10           -6.8269    -0.6329    -1.0491 C.2     
  11 C11           -8.1078    -0.3016    -1.3442 C.2     
  12 N12           -8.1708     1.0506    -1.4655 N.pl3   
  13 N13           -6.8912     1.5698    -1.2326 N.2     
  14 N14           -6.3344    -1.9316    -0.8424 N.am    
  15 C15           -7.1877    -2.9724    -0.7706 C.2     
  16 O16           -8.3884    -2.7770    -0.7885 O.2     
  17 C17           -1.4015    -0.5137     0.2285 C.ar    
  18 O18            0.9114    -0.3830     0.7287 O.3     
  19 C19            0.8535    -1.7899     0.9724 C.3     
  20 C20           -6.6673    -4.3441    -0.6705 C.2     
  21 O21            0.8905     2.3212     0.2310 O.3     
  22 C22            0.8108     3.7215    -0.0426 C.3     
  23 C23           -5.3420    -4.7264    -0.7335 C.2     
  24 N24           -7.4049    -5.4840    -0.4912 N.pl3   
  25 N25           -6.5147    -6.5645    -0.4518 N.2     
  26 C26           -5.2939    -6.1113    -0.5957 C.2     
  27 C27           -4.0427    -6.9511    -0.6098 C.3     
  28 C28           -3.3025    -6.7859     0.7190 C.3     
  29 C29           -4.4176    -8.4215    -0.8054 C.3     
  30 C30           -3.1376    -6.4986    -1.7574 C.3     
  31 C31           -8.7979    -5.5562    -0.3692 C.ar    
  32 C32           -9.5080    -6.5265    -1.0642 C.ar    
  33 C33          -10.8819    -6.5950    -0.9418 C.ar    
  34 C34          -11.5507    -5.6985    -0.1286 C.ar    
  35 C35          -10.8465    -4.7311     0.5648 C.ar    
  36 C36           -9.4719    -4.6612     0.4515 C.ar    
  37 H37           -1.4301     3.2945    -0.4667 H       
  38 H38           -4.2322     2.7080    -0.9607 H       
  39 H39           -8.9317    -0.9898    -1.4620 H       
  40 H40           -8.9652     1.5668    -1.6738 H       
  41 H41           -5.3801    -2.0796    -0.7514 H       
  42 H42           -1.3884    -1.5756     0.4249 H       
  43 H43            1.8410    -2.1495     1.2616 H       
  44 H44            0.1442    -1.9907     1.7753 H       
  45 H45            0.5311    -2.3026     0.0661 H       
  46 H46            1.7919     4.1754     0.0970 H       
  47 H47            0.4837     3.8726    -1.0714 H       
  48 H48            0.0960     4.1845     0.6377 H       
  49 H49           -4.4950    -4.0696    -0.8664 H       
  50 H50           -3.9473    -7.1083     1.5366 H       
  51 H51           -2.3976    -7.3933     0.7088 H       
  52 H52           -3.0355    -5.7383     0.8583 H       
  53 H53           -4.9448    -8.5393    -1.7520 H       
  54 H54           -3.5126    -9.0290    -0.8155 H       
  55 H55           -5.0624    -8.7439     0.0122 H       
  56 H56           -2.8705    -5.4510    -1.6181 H       
  57 H57           -2.2326    -7.1060    -1.7676 H       
  58 H58           -3.6649    -6.6163    -2.7041 H       
  59 H59           -8.9863    -7.2265    -1.7000 H       
  60 H60          -11.4347    -7.3494    -1.4820 H       
  61 H61          -12.6252    -5.7537    -0.0350 H       
  62 H62          -11.3717    -4.0324     1.1991 H       
  63 H63           -8.9225    -3.9058     0.9936 H       
@<TRIPOS>BOND
   1    1    2 ar
   2    1   21 1
   3    1    5 ar
   4    2   17 ar
   5    2   18 1
   6    3    4 ar
   7    3    6 1
   8    3   17 ar
   9    4    5 ar
  10    4    8 1
  11    5   37 1
  12    6    7 2
  13    7    8 1
  14    7    9 1
  15    8   38 1
  16    9   10 1
  17    9   13 2
  18   10   11 2
  19   10   14 1
  20   11   12 1
  21   11   39 1
  22   12   13 1
  23   12   40 1
  24   14   15 am
  25   14   41 1
  26   15   16 2
  27   15   20 1
  28   17   42 1
  29   18   19 1
  30   19   43 1
  31   19   44 1
  32   19   45 1
  33   20   23 2
  34   20   24 1
  35   21   22 1
  36   22   46 1
  37   22   47 1
  38   22   48 1
  39   23   26 1
  40   23   49 1
  41   24   25 1
  42   24   31 1
  43   25   26 2
  44   26   27 1
  45   27   28 1
  46   27   29 1
  47   27   30 1
  48   28   50 1
  49   28   51 1
  50   28   52 1
  51   29   53 1
  52   29   54 1
  53   29   55 1
  54   30   56 1
  55   30   57 1
  56   30   58 1
  57   31   32 ar
  58   31   36 ar
  59   32   33 ar
  60   32   59 1
  61   33   34 ar
  62   33   60 1
  63   34   35 ar
  64   34   61 1
  65   35   36 ar
  66   35   62 1
  67   36   63 1

#	End of record

