#	Name: ASD01180197
#	Creating user name:	WinNT
#	Creation time:	15. 06. 2019 19:06

#	Modifying user name:	WinNT
#	Modification time:	15. 06. 2019 19:06

#	Program:	/corina/corina34_cracker 3.40 0067  02.08.2006

@<TRIPOS>MOLECULE
ASD01180197
  67   69    0    0    0
SMALL
NO_CHARGES


@<TRIPOS>ATOM
   1 C1             1.0885     1.4871    -0.2705 C.ar    
   2 C2             0.9118     0.1205    -0.1925 C.ar    
   3 C3             2.0161    -0.7269    -0.2549 C.ar    
   4 C4             3.2936    -0.1888    -0.3958 C.ar    
   5 C5             3.4588     1.1793    -0.4728 C.ar    
   6 C6             2.3590     2.0159    -0.4103 C.ar    
   7 C7             1.8323    -2.1970    -0.1711 C.ar    
   8 C8             2.1497    -3.0046    -1.2613 C.ar    
   9 C9             1.9767    -4.3713    -1.1779 C.ar    
  10 C10            1.4890    -4.9396    -0.0149 C.ar    
  11 C11            1.1724    -4.1426     1.0704 C.ar    
  12 C12            1.3473    -2.7754     1.0001 C.ar    
  13 C13            1.3014    -6.4325     0.0698 C.3     
  14 C14            2.4807    -7.0528     0.8218 C.3     
  15 N15            0.0569    -6.7285     0.7838 N.pl3   
  16 C16           -1.1543    -6.6757     0.1149 C.ar    
  17 N17           -2.2822    -6.8477     0.7905 N.ar    
  18 C18           -3.4565    -6.8058     0.1963 C.ar    
  19 C19           -3.5480    -6.5769    -1.1773 C.ar    
  20 C20           -2.3699    -6.3914    -1.9172 C.ar    
  21 C21           -1.1712    -6.4369    -1.2583 C.ar    
  22 C22           -4.8643    -6.5311    -1.8423 C.2     
  23 N23           -5.9895    -6.7109    -1.1226 N.am    
  24 O24           -4.9339    -6.3310    -3.0396 O.2     
  25 C25           -7.2965    -6.6654    -1.7829 C.3     
  26 C26           -8.3991    -6.8977    -0.7479 C.3     
  27 C27           -9.7435    -6.8508    -1.4271 C.2     
  28 O28          -10.8642    -7.0299    -0.7104 O.3     
  29 O29           -9.8127    -6.6521    -2.6169 O.2     
  30 C30            2.3477    -8.5770     0.8107 C.3     
  31 C31            2.4806    -9.0901    -0.6245 C.3     
  32 C32            3.4497    -9.1914     1.6762 C.3     
  33 C33           -0.4730    -0.4541    -0.0396 C.3     
  34 C34            4.4928    -1.0989    -0.4635 C.3     
  35 H35            0.2328     2.1446    -0.2267 H       
  36 H36            4.4485     1.5975    -0.5821 H       
  37 H37            2.4927     3.0859    -0.4709 H       
  38 H38            2.5299    -2.5618    -2.1700 H       
  39 H39            2.2224    -4.9983    -2.0223 H       
  40 H40            0.7919    -4.5915     1.9760 H       
  41 H41            1.0997    -2.1540     1.8480 H       
  42 H42            1.2516    -6.8501    -0.9358 H       
  43 H43            3.4131    -6.7659     0.3355 H       
  44 H44            2.4832    -6.6958     1.8517 H       
  45 H45            0.0814    -6.9615     1.7251 H       
  46 H46           -4.3560    -6.9500     0.7765 H       
  47 H47           -2.4086    -6.2124    -2.9815 H       
  48 H48           -0.2465    -6.2979    -1.7988 H       
  49 H49           -5.9340    -6.8705    -0.1674 H       
  50 H50           -7.4346    -5.6894    -2.2482 H       
  51 H51           -7.3451    -7.4420    -2.5462 H       
  52 H52           -8.2609    -7.8736    -0.2826 H       
  53 H53           -8.3504    -6.1211     0.0154 H       
  54 H54          -11.7030    -6.9912    -1.1900 H       
  55 H55            1.3731    -8.8595     1.2088 H       
  56 H56            1.7384    -8.6011    -1.2554 H       
  57 H57            3.4796    -8.8669    -0.9991 H       
  58 H58            2.3186   -10.1679    -0.6415 H       
  59 H59            3.3550    -8.8258     2.6987 H       
  60 H60            3.3549   -10.2772     1.6683 H       
  61 H61            4.4243    -8.9088     1.2781 H       
  62 H62           -0.9005    -0.6388    -1.0251 H       
  63 H63           -0.4184    -1.3913     0.5142 H       
  64 H64           -1.1016     0.2523     0.5025 H       
  65 H65            4.6888    -1.3650    -1.5022 H       
  66 H66            5.3614    -0.5868    -0.0495 H       
  67 H67            4.2956    -2.0032     0.1122 H       
@<TRIPOS>BOND
   1    1    2 ar
   2    1    6 ar
   3    1   35 1
   4    2    3 ar
   5    2   33 1
   6    3    4 ar
   7    3    7 1
   8    4    5 ar
   9    4   34 1
  10    5    6 ar
  11    5   36 1
  12    6   37 1
  13    7    8 ar
  14    7   12 ar
  15    8    9 ar
  16    8   38 1
  17    9   10 ar
  18    9   39 1
  19   10   11 ar
  20   10   13 1
  21   11   12 ar
  22   11   40 1
  23   12   41 1
  24   13   14 1
  25   13   15 1
  26   13   42 1
  27   14   30 1
  28   14   43 1
  29   14   44 1
  30   15   16 1
  31   15   45 1
  32   16   17 ar
  33   16   21 ar
  34   17   18 ar
  35   18   19 ar
  36   18   46 1
  37   19   20 ar
  38   19   22 1
  39   20   21 ar
  40   20   47 1
  41   21   48 1
  42   22   23 am
  43   22   24 2
  44   23   25 1
  45   23   49 1
  46   25   26 1
  47   25   50 1
  48   25   51 1
  49   26   27 1
  50   26   52 1
  51   26   53 1
  52   27   28 1
  53   27   29 2
  54   28   54 1
  55   30   31 1
  56   30   32 1
  57   30   55 1
  58   31   56 1
  59   31   57 1
  60   31   58 1
  61   32   59 1
  62   32   60 1
  63   32   61 1
  64   33   62 1
  65   33   63 1
  66   33   64 1
  67   34   65 1
  68   34   66 1
  69   34   67 1

#	End of record

