#	Name: ASD01881458
#	Creating user name:	WinNT
#	Creation time:	15. 06. 2019 19:42

#	Modifying user name:	WinNT
#	Modification time:	15. 06. 2019 19:42

#	Program:	/corina/corina34_cracker 3.40 0067  02.08.2006

@<TRIPOS>MOLECULE
ASD01881458
  59   63    0    0    0
SMALL
NO_CHARGES


@<TRIPOS>ATOM
   1 C1            -2.1050     1.4683     0.4140 C.3     
   2 C2             0.7680     9.8267     4.2669 C.ar    
   3 C3             0.7166     8.6974     3.4751 C.ar    
   4 C4            -0.2808    10.1273     5.1169 C.ar    
   5 C5            -1.3881     9.2981     5.1790 C.ar    
   6 C6            -1.4504     8.1656     4.3913 C.ar    
   7 C7            -0.3954     7.8583     3.5328 C.ar    
   8 C8            -0.4562     6.6447     2.6844 C.2     
   9 C9            -0.5045     6.7573     1.3080 C.2     
  10 C10           -0.4595     5.3582     3.2761 C.2     
  11 C11           -0.5148     4.2569     2.5038 C.2     
  12 N12           -0.5684     4.3588     1.1435 N.pl3   
  13 C13           -0.5616     5.5882     0.5300 C.2     
  14 C14           -0.6301     3.4425     0.1385 C.2     
  15 N15           -0.6628     4.0994    -0.9923 N.2     
  16 N16           -0.6221     5.3668    -0.7741 N.2     
  17 C17           -0.6555     1.9444     0.2994 C.3     
  18 Cl18          -2.6996     9.6823     6.2495 Cl      
  19 C19           -0.2182    11.3619     5.9787 C.3     
  20 N20            0.0495    10.9747     7.3702 N.3     
  21 C21            0.2106    12.1584     8.2242 C.3     
  22 C22           -2.3508    -0.0409     0.4667 C.3     
  23 C23           -2.5299     0.8078     1.7271 C.3     
  24 C24            0.3423    11.7212     9.6849 C.3     
  25 C25            1.5542    10.7964     9.8284 C.3     
  26 C26            1.3841     9.5961     8.8930 C.3     
  27 C27            1.2222    10.0950     7.4553 C.3     
  28 O28            2.7427    11.5090     9.4796 O.3     
  29 C29            1.6557    10.3072    11.2746 C.3     
  30 C30           -0.4964     8.1135     0.6509 C.3     
  31 F31            0.8137     8.4518     0.2956 F       
  32 F32           -1.2969     8.0808    -0.4960 F       
  33 F33           -0.9986     9.0669     1.5431 F       
  34 H34           -2.8433     2.0806    -0.1036 H       
  35 H35            1.6310    10.4747     4.2260 H       
  36 H36            1.5362     8.4643     2.8116 H       
  37 H37           -2.3141     7.5190     4.4404 H       
  38 H38           -0.4171     5.2601     4.3508 H       
  39 H39           -0.5164     3.2808     2.9660 H       
  40 H40           -0.1094     1.6664     1.2008 H       
  41 H41           -0.1873     1.4779    -0.5674 H       
  42 H42            0.5799    12.0134     5.6229 H       
  43 H43           -1.1699    11.8908     5.9255 H       
  44 H44            1.1068    12.7023     7.9257 H       
  45 H45           -0.6598    12.8055     8.1159 H       
  46 H46           -3.2510    -0.4214    -0.0159 H       
  47 H47           -1.4799    -0.6947     0.4197 H       
  48 H48           -1.7767     0.7124     2.5093 H       
  49 H49           -3.5479     0.9857     2.0736 H       
  50 H50            0.4775    12.5990    10.3167 H       
  51 H51           -0.5594    11.1891     9.9882 H       
  52 H52            2.2637     8.9557     8.9591 H       
  53 H53            0.4988     9.0307     9.1839 H       
  54 H54            1.0866     9.2434     6.7886 H       
  55 H55            2.1137    10.6486     7.1604 H       
  56 H56            3.5512    10.9829     9.5479 H       
  57 H57            0.7496     9.7616    11.5380 H       
  58 H58            2.5186     9.6491    11.3758 H       
  59 H59            1.7711    11.1626    11.9402 H       
@<TRIPOS>BOND
   1    1   22 1
   2    1   17 1
   3    1   23 1
   4    1   34 1
   5    2    3 ar
   6    2    4 ar
   7    2   35 1
   8    3    7 ar
   9    3   36 1
  10    4    5 ar
  11    4   19 1
  12    5    6 ar
  13    5   18 1
  14    6    7 ar
  15    6   37 1
  16    7    8 1
  17    8    9 2
  18    8   10 1
  19    9   30 1
  20    9   13 1
  21   10   11 2
  22   10   38 1
  23   11   12 1
  24   11   39 1
  25   12   13 1
  26   12   14 1
  27   13   16 2
  28   14   15 2
  29   14   17 1
  30   15   16 1
  31   17   40 1
  32   17   41 1
  33   19   20 1
  34   19   42 1
  35   19   43 1
  36   20   21 1
  37   20   27 1
  38   21   24 1
  39   21   44 1
  40   21   45 1
  41   22   23 1
  42   22   46 1
  43   22   47 1
  44   23   48 1
  45   23   49 1
  46   24   25 1
  47   24   50 1
  48   24   51 1
  49   25   26 1
  50   25   28 1
  51   25   29 1
  52   26   27 1
  53   26   52 1
  54   26   53 1
  55   27   54 1
  56   27   55 1
  57   28   56 1
  58   29   57 1
  59   29   58 1
  60   29   59 1
  61   30   31 1
  62   30   32 1
  63   30   33 1

#	End of record

