#	Name: ASD05430672
#	Creating user name:	WinNT
#	Creation time:	15. 06. 2019 21:00

#	Modifying user name:	WinNT
#	Modification time:	15. 06. 2019 21:00

#	Program:	/corina/corina34_cracker 3.40 0067  02.08.2006

@<TRIPOS>MOLECULE
ASD05430672
  20   20    0    0    0
SMALL
NO_CHARGES


@<TRIPOS>ATOM
   1 C1            -0.0167     1.3767     0.0096 C.ar    
   2 C2             0.0021    -0.0041     0.0020 C.ar    
   3 N3            -1.1214    -0.6960     0.0090 N.ar    
   4 C4            -2.3978     1.2806     0.0432 C.ar    
   5 C5            -1.2361     2.0380     0.0306 C.ar    
   6 C6             1.2730     2.1564     0.0015 C.3     
   7 C7            -2.3009    -0.1038     0.0234 C.ar    
   8 C8             2.0944     1.7963     1.2410 C.3     
   9 C9             2.0706     1.8097    -1.2573 C.3     
  10 F10           -3.6072     1.8822     0.0642 F       
  11 F11           -3.4252    -0.8530     0.0296 F       
  12 H12            0.9485    -0.5243    -0.0101 H       
  13 H13           -1.2796     3.1170     0.0454 H       
  14 H14            1.0523     3.2238     0.0093 H       
  15 H15            1.5262     2.0433     2.1378 H       
  16 H16            2.3151     0.7289     1.2332 H       
  17 H17            3.0272     2.3602     1.2351 H       
  18 H18            1.4853     2.0662    -2.1404 H       
  19 H19            3.0033     2.3736    -1.2632 H       
  20 H20            2.2913     0.7423    -1.2651 H       
@<TRIPOS>BOND
   1    1    2 ar
   2    1    6 1
   3    1    5 ar
   4    2    3 ar
   5    2   12 1
   6    3    7 ar
   7    4    5 ar
   8    4   10 1
   9    4    7 ar
  10    5   13 1
  11    6    8 1
  12    6    9 1
  13    6   14 1
  14    7   11 1
  15    8   15 1
  16    8   16 1
  17    8   17 1
  18    9   18 1
  19    9   19 1
  20    9   20 1

#	End of record

