#	Name: ASD01918510
#	Creating user name:	WinNT
#	Creation time:	15. 06. 2019 20:11

#	Modifying user name:	WinNT
#	Modification time:	15. 06. 2019 20:11

#	Program:	/corina/corina34_cracker 3.40 0067  02.08.2006

@<TRIPOS>MOLECULE
ASD01918510
  41   44    0    0    0
SMALL
NO_CHARGES


@<TRIPOS>ATOM
   1 C1            -1.6929     0.9103     0.2627 C.3     
   2 C2            -0.7908    -0.2887     0.1229 C.ar    
   3 C3            -0.8228    -1.0469    -1.0290 C.ar    
   4 C4             0.0045    -2.1482    -1.1595 C.ar    
   5 C5             0.8693    -2.4969    -0.1361 C.ar    
   6 Cl6            1.9039    -3.8801    -0.3094 Cl      
   7 C7             0.9108    -1.7460     1.0222 C.ar    
   8 C8             0.0827    -0.6309     1.1567 C.ar    
   9 C9             0.1263     0.1816     2.3911 C.2     
  10 O10            0.1674     1.3943     2.3195 O.2     
  11 N11            0.1206    -0.4224     3.5960 N.am    
  12 C12            0.2779     0.3594     4.8315 C.3     
  13 C13           -1.0070     0.2495     5.6621 C.3     
  14 C14           -1.4463    -1.1918     5.6896 C.2     
  15 O15           -2.3002    -1.7787     6.5413 O.3     
  16 C16           -2.3991    -3.0749     6.1893 C.2     
  17 N17           -1.6255    -3.2873     5.1477 N.2     
  18 C18           -1.0271    -2.1398     4.8244 C.2     
  19 C19           -0.0497    -1.8823     3.7081 C.3     
  20 C20           -3.2380    -4.0894     6.8617 C.ar    
  21 C21           -3.2418    -5.4036     6.3940 C.ar    
  22 C22           -4.0319    -6.3427     7.0331 C.ar    
  23 C23           -4.7946    -5.9373     8.1216 C.ar    
  24 F24           -5.5789    -6.8237     8.7732 F       
  25 C25           -4.7425    -4.6143     8.5327 C.ar    
  26 N26           -3.9776    -3.7430     7.9093 N.ar    
  27 H27           -1.1498     1.8095    -0.0283 H       
  28 H28           -2.5635     0.7871    -0.3816 H       
  29 H29           -2.0179     1.0017     1.2991 H       
  30 H30           -1.4954    -0.7804    -1.8308 H       
  31 H31           -0.0247    -2.7386    -2.0634 H       
  32 H32            1.5854    -2.0187     1.8202 H       
  33 H33            1.1177    -0.0318     5.4058 H       
  34 H34            0.4615     1.4041     4.5807 H       
  35 H35           -0.8151     0.5923     6.6789 H       
  36 H36           -1.7878     0.8608     5.2098 H       
  37 H37           -0.4415    -2.2829     2.7731 H       
  38 H38            0.9066    -2.3504     3.9414 H       
  39 H39           -2.6367    -5.6842     5.5446 H       
  40 H40           -4.0555    -7.3676     6.6934 H       
  41 H41           -5.3341    -4.2952     9.3780 H       
@<TRIPOS>BOND
   1    1    2 1
   2    1   27 1
   3    1   28 1
   4    1   29 1
   5    2    8 ar
   6    2    3 ar
   7    3    4 ar
   8    3   30 1
   9    4    5 ar
  10    4   31 1
  11    5    6 1
  12    5    7 ar
  13    7    8 ar
  14    7   32 1
  15    8    9 1
  16    9   10 2
  17    9   11 am
  18   11   19 1
  19   11   12 1
  20   12   13 1
  21   12   33 1
  22   12   34 1
  23   13   14 1
  24   13   35 1
  25   13   36 1
  26   14   18 2
  27   14   15 1
  28   15   16 1
  29   16   17 2
  30   16   20 1
  31   17   18 1
  32   18   19 1
  33   19   37 1
  34   19   38 1
  35   20   26 ar
  36   20   21 ar
  37   21   22 ar
  38   21   39 1
  39   22   23 ar
  40   22   40 1
  41   23   24 1
  42   23   25 ar
  43   25   26 ar
  44   25   41 1

#	End of record

