#	Name: ASD07300588
#	Creating user name:	WinNT
#	Creation time:	15. 06. 2019 21:10

#	Modifying user name:	WinNT
#	Modification time:	15. 06. 2019 21:10

#	Program:	/corina/corina34_cracker 3.40 0067  02.08.2006

@<TRIPOS>MOLECULE
ASD07300588
  49   52    0    0    0
SMALL
NO_CHARGES


@<TRIPOS>ATOM
   1 C1            -0.0173     1.4133    -0.0101 C.2     
   2 C2             0.0021    -0.0041     0.0020 C.2     
   3 N3             1.1761     2.0865    -0.0173 N.pl3   
   4 N4             1.1569    -0.6390     0.0061 N.2     
   5 C5             2.3147     0.0279    -0.0010 C.2     
   6 C6             2.3461     1.3764    -0.0130 C.2     
   7 N7            -1.0000     2.3007    -0.0113 N.2     
   8 C8            -0.4916     3.5279    -0.0248 C.2     
   9 C9             0.8844     3.4246    -0.0280 C.2     
  10 N10           -1.1862    -0.7177     0.0100 N.pl3   
  11 C11           -1.1896    -2.1845    -0.1073 C.3     
  12 C12           -2.0522    -2.7579     1.0227 C.3     
  13 O13           -3.3301    -2.1171     1.0109 O.3     
  14 C14           -3.2811    -0.7092     1.2547 C.3     
  15 C15           -2.4811    -0.0314     0.1422 C.3     
  16 C16           -1.2812     4.8114    -0.0309 C.3     
  17 C17            1.8525     4.5384    -0.0378 C.ar    
  18 C18            3.1374     4.3450     0.4754 C.ar    
  19 C19            4.0325     5.3982     0.4585 C.ar    
  20 C20            3.6175     6.6137    -0.0707 C.ar    
  21 C21            2.3317     6.7369    -0.5621 C.ar    
  22 N22            1.4975     5.7168    -0.5398 N.ar    
  23 C23            4.5611     7.7881    -0.1082 C.3     
  24 C24            5.3400     7.7747    -1.4250 C.3     
  25 O25            6.2347     8.8883    -1.4606 O.3     
  26 C26            7.0145     8.9694    -2.6553 C.3     
  27 H27            3.2434    -0.5234     0.0031 H       
  28 H28            3.2933     1.8951    -0.0184 H       
  29 H29           -1.6073    -2.4747    -1.0714 H       
  30 H30           -0.1709    -2.5622    -0.0194 H       
  31 H31           -2.1812    -3.8300     0.8742 H       
  32 H32           -1.5638    -2.5785     1.9805 H       
  33 H33           -4.2942    -0.3074     1.2730 H       
  34 H34           -2.7971    -0.5224     2.2133 H       
  35 H35           -2.3173     1.0161     0.3953 H       
  36 H36           -3.0310    -0.1011    -0.7963 H       
  37 H37           -1.4651     5.1298     0.9952 H       
  38 H38           -0.7169     5.5827    -0.5551 H       
  39 H39           -2.2329     4.6501    -0.5373 H       
  40 H40            3.4271     3.3864     0.8799 H       
  41 H41            5.0325     5.2789     0.8485 H       
  42 H42            2.0072     7.6812    -0.9735 H       
  43 H43            3.9915     8.7144    -0.0324 H       
  44 H44            5.2582     7.7209     0.7270 H       
  45 H45            5.9095     6.8484    -1.5009 H       
  46 H46            4.6428     7.8420    -2.2602 H       
  47 H47            7.6188     8.0680    -2.7567 H       
  48 H48            6.3521     9.0615    -3.5160 H       
  49 H49            7.6675     9.8407    -2.6045 H       
@<TRIPOS>BOND
   1    1    2 1
   2    1    3 1
   3    1    7 2
   4    2    4 2
   5    2   10 1
   6    3    6 1
   7    3    9 1
   8    4    5 1
   9    5    6 2
  10    5   27 1
  11    6   28 1
  12    7    8 1
  13    8    9 2
  14    8   16 1
  15    9   17 1
  16   10   11 1
  17   10   15 1
  18   11   12 1
  19   11   29 1
  20   11   30 1
  21   12   13 1
  22   12   31 1
  23   12   32 1
  24   13   14 1
  25   14   15 1
  26   14   33 1
  27   14   34 1
  28   15   35 1
  29   15   36 1
  30   16   37 1
  31   16   38 1
  32   16   39 1
  33   17   18 ar
  34   17   22 ar
  35   18   19 ar
  36   18   40 1
  37   19   20 ar
  38   19   41 1
  39   20   21 ar
  40   20   23 1
  41   21   22 ar
  42   21   42 1
  43   23   24 1
  44   23   43 1
  45   23   44 1
  46   24   25 1
  47   24   45 1
  48   24   46 1
  49   25   26 1
  50   26   47 1
  51   26   48 1
  52   26   49 1

#	End of record

