#	Name: ASD01890427
#	Creating user name:	WinNT
#	Creation time:	15. 06. 2019 19:51

#	Modifying user name:	WinNT
#	Modification time:	15. 06. 2019 19:51

#	Program:	/corina/corina34_cracker 3.40 0067  02.08.2006

@<TRIPOS>MOLECULE
ASD01890427
  63   66    0    0    0
SMALL
NO_CHARGES


@<TRIPOS>ATOM
   1 C1             0.9535     0.1800    -0.8769 C.2     
   2 C2            -0.4206     0.0740    -0.2672 C.3     
   3 C3            -1.3674    -0.5395    -1.2663 C.2     
   4 O4             1.2072    -0.4089    -1.9010 O.2     
   5 O5             1.8940     0.9331    -0.2852 O.3     
   6 O6            -0.9332    -1.1485    -2.2152 O.2     
   7 O7            -2.6933    -0.4094    -1.1020 O.3     
   8 C8            -0.3574    -0.8061     0.9827 C.3     
   9 C9            -1.7708    -1.0186     1.5288 C.3     
  10 C10           -2.3157     0.2918     2.0357 C.2     
  11 O11           -1.6040     1.2733     2.0661 O.2     
  12 C12           -4.2406     1.6116     2.8555 C.ar    
  13 C13           -3.7104     0.3804     2.4935 C.ar    
  14 C14           -4.4998    -0.7843     2.5615 C.ar    
  15 C15           -5.7889    -0.7268     2.9803 C.ar    
  16 C16           -6.3545     0.5065     3.3538 C.ar    
  17 C17           -7.6873     0.5890     3.7893 C.ar    
  18 C18           -8.2083     1.7959     4.1442 C.ar    
  19 C19           -7.4392     2.9564     4.0822 C.ar    
  20 C20           -6.1443     2.9165     3.6653 C.ar    
  21 C21           -5.5710     1.6874     3.2909 C.ar    
  22 C22            1.3950    -2.5395     1.2457 C.ar    
  23 C23            0.2498    -2.1391     0.6283 C.ar    
  24 C24           -0.3697    -2.9434    -0.3260 C.ar    
  25 C25            0.1526    -4.1528    -0.6690 C.ar    
  26 C26            1.3338    -4.5997    -0.0535 C.ar    
  27 C27            1.9026    -5.8425    -0.3811 C.ar    
  28 C28            3.0475    -6.2427     0.2361 C.ar    
  29 C29            3.6670    -5.4383     1.1910 C.ar    
  30 C30            3.1450    -4.2292     1.5340 C.ar    
  31 C31            1.9641    -3.7815     0.9173 C.ar    
  32 C32            3.2219     0.9109    -0.8722 C.3     
  33 C33            4.1782     1.7280    -0.0012 C.3     
  34 C34           -3.5452    -1.0261    -2.1031 C.3     
  35 C35           -5.0123    -0.7737    -1.7498 C.3     
  36 H36           -0.7746     1.0681     0.0059 H       
  37 H37            0.2553    -0.3177     1.7404 H       
  38 H38           -2.4142    -1.3966     0.7343 H       
  39 H39           -1.7401    -1.7397     2.3456 H       
  40 H40           -3.6319     2.5024     2.8064 H       
  41 H41           -4.0736    -1.7348     2.2763 H       
  42 H42           -6.3818    -1.6283     3.0267 H       
  43 H43           -8.2965    -0.3012     3.8422 H       
  44 H44           -9.2336     1.8548     4.4785 H       
  45 H45           -7.8771     3.9011     4.3687 H       
  46 H46           -5.5597     3.8236     3.6225 H       
  47 H47            1.8664    -1.9037     1.9806 H       
  48 H48           -1.2780    -2.6023    -0.8004 H       
  49 H49           -0.3387    -4.7657    -1.4102 H       
  50 H50            1.4333    -6.4768    -1.1186 H       
  51 H51            3.4825    -7.1982    -0.0175 H       
  52 H52            4.5748    -5.7798     1.6661 H       
  53 H53            3.6356    -3.6169     2.2761 H       
  54 H54            3.5752    -0.1185    -0.9327 H       
  55 H55            3.1841     1.3415    -1.8728 H       
  56 H56            3.8745     2.7747    -0.0114 H       
  57 H57            4.1499     1.3514     1.0214 H       
  58 H58            5.1916     1.6398    -0.3929 H       
  59 H59           -3.3276    -0.5955    -3.0805 H       
  60 H60           -3.3572    -2.0995    -2.1289 H       
  61 H61           -5.2003     0.2997    -1.7240 H       
  62 H62           -5.6518    -1.2366    -2.5013 H       
  63 H63           -5.2299    -1.2043    -0.7724 H       
@<TRIPOS>BOND
   1    1    2 1
   2    1    4 2
   3    1    5 1
   4    2    3 1
   5    2    8 1
   6    2   36 1
   7    3    6 2
   8    3    7 1
   9    5   32 1
  10    7   34 1
  11    8    9 1
  12    8   23 1
  13    8   37 1
  14    9   10 1
  15    9   38 1
  16    9   39 1
  17   10   11 2
  18   10   13 1
  19   12   13 ar
  20   12   21 ar
  21   12   40 1
  22   13   14 ar
  23   14   15 ar
  24   14   41 1
  25   15   16 ar
  26   15   42 1
  27   16   17 ar
  28   16   21 ar
  29   17   18 ar
  30   17   43 1
  31   18   19 ar
  32   18   44 1
  33   19   20 ar
  34   19   45 1
  35   20   21 ar
  36   20   46 1
  37   22   23 ar
  38   22   31 ar
  39   22   47 1
  40   23   24 ar
  41   24   25 ar
  42   24   48 1
  43   25   26 ar
  44   25   49 1
  45   26   27 ar
  46   26   31 ar
  47   27   28 ar
  48   27   50 1
  49   28   29 ar
  50   28   51 1
  51   29   30 ar
  52   29   52 1
  53   30   31 ar
  54   30   53 1
  55   32   33 1
  56   32   54 1
  57   32   55 1
  58   33   56 1
  59   33   57 1
  60   33   58 1
  61   34   35 1
  62   34   59 1
  63   34   60 1
  64   35   61 1
  65   35   62 1
  66   35   63 1

#	End of record

