#	Name: ASD01815902
#	Creating user name:	WinNT
#	Creation time:	15. 06. 2019 19:34

#	Modifying user name:	WinNT
#	Modification time:	15. 06. 2019 19:34

#	Program:	/corina/corina34_cracker 3.40 0067  02.08.2006

@<TRIPOS>MOLECULE
ASD01815902
  53   58    0    0    0
SMALL
NO_CHARGES


@<TRIPOS>ATOM
   1 C1            -0.0755     1.3135     0.1763 C.ar    
   2 C2            -0.0315    -0.0710     0.1644 C.ar    
   3 C3             1.1769    -0.7363     0.0950 C.ar    
   4 C4             2.3673    -0.0166     0.0366 C.ar    
   5 C5             2.3197     1.3868     0.0488 C.ar    
   6 C6             1.0945     2.0466     0.1187 C.ar    
   7 N7             3.5823    -0.6780    -0.0322 N.pl3   
   8 C8             4.7607    -0.0376    -0.0905 C.2     
   9 C9             4.8385     1.3331    -0.0856 C.2     
  10 C10            3.5924     2.1299    -0.0138 C.2     
  11 C11            5.9163     2.3159    -0.1363 C.2     
  12 N12            5.3224     3.5282    -0.0968 N.am    
  13 N13            3.9344     3.3863    -0.0238 N.2     
  14 C14            6.0013     4.7532    -0.1248 C.ar    
  15 O15            7.1134     2.0880    -0.2010 O.2     
  16 C16            3.5814    -2.1429    -0.0413 C.3     
  17 C17            3.7087    -2.6541     1.3706 C.ar    
  18 C18            2.5842    -2.7680     2.1672 C.ar    
  19 C19            2.6978    -3.2358     3.4618 C.ar    
  20 C20            3.9425    -3.5922     3.9629 C.ar    
  21 C21            5.0697    -3.4772     3.1605 C.ar    
  22 C22            4.9490    -3.0137     1.8650 C.ar    
  23 N23            4.0611    -4.0669     5.2767 N.pl3   
  24 C24            5.2074    -4.4464     5.8853 C.2     
  25 F25            1.0506     3.3969     0.1308 F       
  26 F26            1.2039    -2.0870     0.0841 F       
  27 C27            4.8957    -4.8384     7.1424 C.2     
  28 C28            3.5139    -4.6942     7.3086 C.2     
  29 N29            3.0138    -4.2263     6.1933 N.2     
  30 C30            5.7951     5.6946     0.8735 C.ar    
  31 C31            6.8974     5.0409    -1.1525 C.ar    
  32 C32            7.2825     7.1560    -0.1100 C.ar    
  33 N33            6.4314     6.8496     0.8516 N.ar    
  34 C34            7.5447     6.2642    -1.1380 C.ar    
  35 F35            7.9098     8.3524    -0.0890 F       
  36 C36            4.8336     5.3943     1.9944 C.3     
  37 H37           -1.0273     1.8215     0.2264 H       
  38 H38           -0.9510    -0.6357     0.2101 H       
  39 H39            5.6714    -0.6158    -0.1422 H       
  40 H40            2.6486    -2.5030    -0.4754 H       
  41 H41            4.4214    -2.5031    -0.6353 H       
  42 H42            1.6162    -2.4905     1.7769 H       
  43 H43            1.8192    -3.3238     4.0838 H       
  44 H44            6.0393    -3.7534     3.5477 H       
  45 H45            5.8255    -2.9240     1.2404 H       
  46 H46            6.1943    -4.4386     5.4467 H       
  47 H47            5.5909    -5.1990     7.8862 H       
  48 H48            2.9566    -4.9250     8.2045 H       
  49 H49            7.0827     4.3265    -1.9410 H       
  50 H50            8.2457     6.5208    -1.9184 H       
  51 H51            5.3680     4.9098     2.8116 H       
  52 H52            4.3897     6.3237     2.3511 H       
  53 H53            4.0475     4.7322     1.6312 H       
@<TRIPOS>BOND
   1    1    2 ar
   2    1    6 ar
   3    1   37 1
   4    2    3 ar
   5    2   38 1
   6    3    4 ar
   7    3   26 1
   8    4    5 ar
   9    4    7 1
  10    5    6 ar
  11    5   10 1
  12    6   25 1
  13    7    8 1
  14    7   16 1
  15    8    9 2
  16    8   39 1
  17    9   10 1
  18    9   11 1
  19   10   13 2
  20   11   12 am
  21   11   15 2
  22   12   13 1
  23   12   14 1
  24   14   30 ar
  25   14   31 ar
  26   16   17 1
  27   16   40 1
  28   16   41 1
  29   17   18 ar
  30   17   22 ar
  31   18   19 ar
  32   18   42 1
  33   19   20 ar
  34   19   43 1
  35   20   21 ar
  36   20   23 1
  37   21   22 ar
  38   21   44 1
  39   22   45 1
  40   23   24 1
  41   23   29 1
  42   24   27 2
  43   24   46 1
  44   27   28 1
  45   27   47 1
  46   28   29 2
  47   28   48 1
  48   30   36 1
  49   30   33 ar
  50   31   34 ar
  51   31   49 1
  52   32   33 ar
  53   32   35 1
  54   32   34 ar
  55   34   50 1
  56   36   51 1
  57   36   52 1
  58   36   53 1

#	End of record

