#	Name: ASD07300281
#	Creating user name:	WinNT
#	Creation time:	15. 06. 2019 21:09

#	Modifying user name:	WinNT
#	Modification time:	15. 06. 2019 21:09

#	Program:	/corina/corina34_cracker 3.40 0067  02.08.2006

@<TRIPOS>MOLECULE
ASD07300281
  35   37    0    0    0
SMALL
NO_CHARGES


@<TRIPOS>ATOM
   1 C1            -0.1115     1.4135     0.1082 C.ar    
   2 C2            -0.1388     0.0178     0.0266 C.ar    
   3 C3             0.9719    -0.6566    -0.4581 C.ar    
   4 C4             2.0752     0.0898    -0.8459 C.ar    
   5 C5             2.0330     1.4671    -0.7381 C.ar    
   6 N6             0.9635     2.0833    -0.2730 N.ar    
   7 C7            -2.0811     0.7040     0.8505 C.2     
   8 N8            -1.3405     1.8054     0.6267 N.am    
   9 N9            -1.3843    -0.3917     0.4931 N.am    
  10 O10           -3.2105     0.6992     1.3032 O.2     
  11 C11            0.9803    -2.1601    -0.5604 C.3     
  12 F12            2.2494    -2.5933    -0.9591 F       
  13 F13            0.6687    -2.7140     0.6859 F       
  14 F14            0.0306    -2.5687    -1.5029 F       
  15 C15           -1.7414     3.1268     0.8749 C.ar    
  16 C16           -3.0018     3.3836     1.3970 C.ar    
  17 C17           -3.3957     4.6843     1.6416 C.ar    
  18 C18           -2.5321     5.7343     1.3656 C.ar    
  19 C19           -1.2727     5.4783     0.8434 C.ar    
  20 C20           -0.8757     4.1776     0.6038 C.ar    
  21 O21           -2.9205     7.0148     1.6066 O.3     
  22 C22           -1.8534    -1.7764     0.5874 C.3     
  23 C23           -1.6259    -2.2963     2.0082 C.3     
  24 H24            2.9584    -0.4005    -1.2280 H       
  25 H25            2.8914     2.0492    -1.0393 H       
  26 H26           -3.6743     2.5662     1.6116 H       
  27 H27           -4.3764     4.8842     2.0474 H       
  28 H28           -0.6010     6.2962     0.6281 H       
  29 H29            0.1067     3.9781     0.2018 H       
  30 H30           -2.7049     7.3307     2.4947 H       
  31 H31           -2.9168    -1.8166     0.3517 H       
  32 H32           -1.3010    -2.3960    -0.1190 H       
  33 H33           -1.9749    -3.3265     2.0784 H       
  34 H34           -0.5624    -2.2561     2.2439 H       
  35 H35           -2.1783    -1.6767     2.7147 H       
@<TRIPOS>BOND
   1    1    2 ar
   2    1    6 ar
   3    1    8 1
   4    2    3 ar
   5    2    9 1
   6    3    4 ar
   7    3   11 1
   8    4    5 ar
   9    4   24 1
  10    5    6 ar
  11    5   25 1
  12    7    8 am
  13    7    9 am
  14    7   10 2
  15    8   15 1
  16    9   22 1
  17   11   12 1
  18   11   13 1
  19   11   14 1
  20   15   16 ar
  21   15   20 ar
  22   16   17 ar
  23   16   26 1
  24   17   18 ar
  25   17   27 1
  26   18   19 ar
  27   18   21 1
  28   19   20 ar
  29   19   28 1
  30   20   29 1
  31   21   30 1
  32   22   23 1
  33   22   31 1
  34   22   32 1
  35   23   33 1
  36   23   34 1
  37   23   35 1

#	End of record

