#	Name: ASD01870573
#	Creating user name:	WinNT
#	Creation time:	15. 06. 2019 19:39

#	Modifying user name:	WinNT
#	Modification time:	15. 06. 2019 19:39

#	Program:	/corina/corina34_cracker 3.40 0067  02.08.2006

@<TRIPOS>MOLECULE
ASD01870573
  42   45    0    0    0
SMALL
NO_CHARGES


@<TRIPOS>ATOM
   1 C1            -0.0107     1.3947     0.0269 C.ar    
   2 C2             0.0041     0.0063     0.0173 C.ar    
   3 C3             1.2072    -0.6715    -0.0031 C.ar    
   4 C4             2.4025     0.0350    -0.0145 C.ar    
   5 C5             2.3888     1.4240    -0.0054 C.ar    
   6 C6             1.1861     2.1025     0.0155 C.ar    
   7 N7             3.6221    -0.6529    -0.0346 N.am    
   8 C8             4.6712    -0.1450    -0.7114 C.2     
   9 C9             5.9795    -0.8029    -0.6372 C.2     
  10 O10            6.2666    -1.9198     0.0631 O.3     
  11 C11            7.1194    -0.3959    -1.2695 C.2     
  12 C12            8.1237    -1.3122    -0.9202 C.2     
  13 C13            7.5592    -2.2289    -0.1034 C.2     
  14 C14            7.2698     0.8041    -2.1685 C.3     
  15 O15            4.5326     0.8598    -1.3841 O.2     
  16 Cl16           1.1684     3.8383     0.0268 Cl      
  17 N17           -1.2300     2.0816     0.0421 N.pl3   
  18 C18           -3.3864     2.1756     1.1519 C.3     
  19 O19           -3.8806     2.9399     0.0527 O.3     
  20 C20           -1.8758     2.4409    -1.1495 C.ar    
  21 C21           -1.8837     2.4474     1.3109 C.3     
  22 C22           -3.2041     2.8656    -1.1226 C.ar    
  23 N23           -3.8122     3.2061    -2.2481 N.ar    
  24 C24           -3.1968     3.1545    -3.4144 C.ar    
  25 C25           -1.8839     2.7401    -3.5126 C.ar    
  26 C26           -1.2010     2.3765    -2.3591 C.ar    
  27 H27           -0.9253    -0.5437     0.0261 H       
  28 H28            1.2183    -1.7514    -0.0098 H       
  29 H29            3.3187     1.9733    -0.0139 H       
  30 H30            3.7119    -1.4950     0.4384 H       
  31 H31            9.1533    -1.2904    -1.2454 H       
  32 H32            8.0662    -3.0729     0.3404 H       
  33 H33            7.5506     1.6721    -1.5720 H       
  34 H34            8.0436     0.6075    -2.9106 H       
  35 H35            6.3239     1.0007    -2.6733 H       
  36 H36           -3.9047     2.4709     2.0642 H       
  37 H37           -3.5518     1.1149     0.9628 H       
  38 H38           -1.4818     1.8411     2.1226 H       
  39 H39           -1.7190     3.5043     1.5207 H       
  40 H40           -3.7305     3.4414    -4.3085 H       
  41 H41           -1.3924     2.7034    -4.4736 H       
  42 H42           -0.1718     2.0522    -2.4032 H       
@<TRIPOS>BOND
   1    1    2 ar
   2    1    6 ar
   3    1   17 1
   4    2    3 ar
   5    2   27 1
   6    3    4 ar
   7    3   28 1
   8    4    5 ar
   9    4    7 1
  10    5    6 ar
  11    5   29 1
  12    6   16 1
  13    7    8 am
  14    7   30 1
  15    8    9 1
  16    8   15 2
  17    9   11 2
  18    9   10 1
  19   10   13 1
  20   11   12 1
  21   11   14 1
  22   12   13 2
  23   12   31 1
  24   13   32 1
  25   14   33 1
  26   14   34 1
  27   14   35 1
  28   17   21 1
  29   17   20 1
  30   18   19 1
  31   18   21 1
  32   18   36 1
  33   18   37 1
  34   19   22 1
  35   20   26 ar
  36   20   22 ar
  37   21   38 1
  38   21   39 1
  39   22   23 ar
  40   23   24 ar
  41   24   25 ar
  42   24   40 1
  43   25   26 ar
  44   25   41 1
  45   26   42 1

#	End of record

