#	Name: ASD03731159
#	Creating user name:	WinNT
#	Creation time:	15. 06. 2019 20:45

#	Modifying user name:	WinNT
#	Modification time:	15. 06. 2019 20:45

#	Program:	/corina/corina34_cracker 3.40 0067  02.08.2006

@<TRIPOS>MOLECULE
ASD03731159
  65   70    0    0    0
SMALL
NO_CHARGES


@<TRIPOS>ATOM
   1 O1            -0.0174     1.4356     0.0099 O.3     
   2 C2             0.0021    -0.0041     0.0020 C.3     
   3 O3             1.2461    -0.3262    -0.6470 O.3     
   4 C4             2.0710     0.7345    -0.4034 C.ar    
   5 C5             1.2935     1.8178    -0.0005 C.ar    
   6 C6             3.4452     0.8649    -0.4936 C.ar    
   7 C7             4.0602     2.0747    -0.1856 C.ar    
   8 C8             3.2723     3.1522     0.2076 C.ar    
   9 C9             1.9024     3.0234     0.3045 C.ar    
  10 O10            5.3831     2.4065    -0.1922 O.3     
  11 C11            4.2098     4.3069     0.4393 C.3     
  12 C12            5.5129     3.8410    -0.2242 C.3     
  13 N13            3.6127     6.4762     0.8417 N.am    
  14 C14            3.6993     5.5834    -0.1645 C.2     
  15 C15            4.3992     4.6044     1.8972 C.ar    
  16 C16            4.8378     3.8614     2.9705 C.ar    
  17 C17            4.9039     4.4334     4.2285 C.ar    
  18 C18            4.5284     5.7527     4.4051 C.ar    
  19 C19            4.0877     6.5009     3.3334 C.ar    
  20 C20            4.0181     5.9334     2.0634 C.ar    
  21 O21            3.4201     5.7739    -1.3293 O.2     
  22 C22            3.1483     7.8554     0.6736 C.3     
  23 C23            1.6327     7.9114     0.8755 C.3     
  24 N24           -0.2732    11.6358     1.7501 N.3     
  25 C25           -0.8568    10.8400     0.6626 C.3     
  26 C26           -0.3811     9.3900     0.7779 C.3     
  27 C27            1.1476     9.3518     0.6999 C.3     
  28 C28            1.7297    10.2271     1.8133 C.3     
  29 C29            1.1928    11.6528     1.6680 C.3     
  30 C30           -0.8161    13.0008     1.7533 C.3     
  31 C31           -0.3376    13.8513     2.9418 C.3     
  32 C32           -0.2236    15.0250     1.9548 C.3     
  33 C33           -0.0429    13.9735     0.8473 C.3     
  34 H34           -0.0105    -0.3928     1.0203 H       
  35 H35           -0.8401    -0.3953    -0.5687 H       
  36 H36            4.0448     0.0222    -0.8046 H       
  37 H37            1.3032     3.8652     0.6186 H       
  38 H38            6.3787     4.1643     0.3536 H       
  39 H39            5.5749     4.2013    -1.2510 H       
  40 H40            5.1300     2.8312     2.8302 H       
  41 H41            5.2475     3.8510     5.0706 H       
  42 H42            4.5803     6.1993     5.3870 H       
  43 H43            3.7954     7.5303     3.4796 H       
  44 H44            3.6366     8.4954     1.4085 H       
  45 H45            3.3941     8.2017    -0.3303 H       
  46 H46            1.1443     7.2714     0.1406 H       
  47 H47            1.3868     7.5650     1.8794 H       
  48 H48           -1.9441    10.8721     0.7321 H       
  49 H49           -0.5421    11.2503    -0.2969 H       
  50 H50           -0.7073     8.9747     1.7314 H       
  51 H51           -0.8019     8.8030    -0.0384 H       
  52 H52            1.4725     9.7299    -0.2694 H       
  53 H53            1.4367     9.8249     2.7831 H       
  54 H54            2.8170    10.2380     1.7367 H       
  55 H55            1.4979    12.0592     0.7037 H       
  56 H56            1.5942    12.2752     2.4677 H       
  57 H57           -1.8955    13.0274     1.6040 H       
  58 H58           -1.0985    13.9977     3.7084 H       
  59 H59            0.6204    13.5302     3.3508 H       
  60 H60           -1.1409    15.6061     1.8596 H       
  61 H61            0.6575    15.6463     2.1150 H       
  62 H62            0.9956    13.6858     0.6836 H       
  63 H63           -0.5660    14.2186    -0.0771 H       
  64 Cl64          11.3787    20.6463    10.3870 Cl      
  65 H65           11.3787    22.0163    10.3870 H       
@<TRIPOS>BOND
   1    1    2 1
   2    1    5 1
   3    2    3 1
   4    2   34 1
   5    2   35 1
   6    3    4 1
   7    4    5 ar
   8    4    6 ar
   9    5    9 ar
  10    6    7 ar
  11    6   36 1
  12    7    8 ar
  13    7   10 1
  14    8    9 ar
  15    8   11 1
  16    9   37 1
  17   10   12 1
  18   11   12 1
  19   11   14 1
  20   11   15 1
  21   12   38 1
  22   12   39 1
  23   13   14 am
  24   13   20 1
  25   13   22 1
  26   14   21 2
  27   15   16 ar
  28   15   20 ar
  29   16   17 ar
  30   16   40 1
  31   17   18 ar
  32   17   41 1
  33   18   19 ar
  34   18   42 1
  35   19   20 ar
  36   19   43 1
  37   22   23 1
  38   22   44 1
  39   22   45 1
  40   23   27 1
  41   23   46 1
  42   23   47 1
  43   24   25 1
  44   24   29 1
  45   24   30 1
  46   25   26 1
  47   25   48 1
  48   25   49 1
  49   26   27 1
  50   26   50 1
  51   26   51 1
  52   27   28 1
  53   27   52 1
  54   28   29 1
  55   28   53 1
  56   28   54 1
  57   29   55 1
  58   29   56 1
  59   30   31 1
  60   30   33 1
  61   30   57 1
  62   31   32 1
  63   31   58 1
  64   31   59 1
  65   32   33 1
  66   32   60 1
  67   32   61 1
  68   33   62 1
  69   33   63 1
  70   64   65 1

#	End of record

