#	Name: ASD01881593
#	Creating user name:	WinNT
#	Creation time:	15. 06. 2019 19:43

#	Modifying user name:	WinNT
#	Modification time:	15. 06. 2019 19:43

#	Program:	/corina/corina34_cracker 3.40 0067  02.08.2006

@<TRIPOS>MOLECULE
ASD01881593
  60   63    0    0    0
SMALL
NO_CHARGES


@<TRIPOS>ATOM
   1 C1            -0.0168     1.3853     0.0097 C.ar    
   2 C2             0.0021    -0.0041     0.0020 C.ar    
   3 C3             1.2223    -0.6805    -0.0132 C.ar    
   4 C4             2.4213     0.0479    -0.0208 C.ar    
   5 C5             2.3889     1.4351    -0.0130 C.ar    
   6 C6             1.1818     2.1009     0.0021 C.ar    
   7 C7            -1.3121     2.1090     0.0197 C.ar    
   8 C8            -1.3347     3.5024     0.0274 C.ar    
   9 C9            -2.5422     4.1703     0.0368 C.ar    
  10 C10           -3.7289     3.4592     0.0386 C.ar    
  11 C11           -3.7124     2.0763     0.0314 C.ar    
  12 C12           -2.5103     1.3980     0.0157 C.ar    
  13 C13            1.2515    -2.1544    -0.0210 C.2     
  14 O14            2.3156    -2.7409    -0.0342 O.2     
  15 O15            0.0982    -2.8512    -0.0133 O.3     
  16 O16            3.6109    -0.6031    -0.0351 O.3     
  17 C17           -2.5683     5.6770     0.0456 C.3     
  18 O18           -2.5826     6.1611    -1.2989 O.3     
  19 N19           -2.6808    11.5530    -2.2585 N.pl3   
  20 N20           -2.6848    11.4608    -3.6582 N.2     
  21 N21           -2.6644    10.2225    -4.0057 N.2     
  22 C22           -2.6460     9.4301    -2.9154 C.ar    
  23 C23           -2.6561    10.2620    -1.7824 C.ar    
  24 C24           -2.6216     8.0392    -2.7431 C.ar    
  25 C25           -2.6068     7.5100    -1.4692 C.ar    
  26 C26           -2.6167     8.3473    -0.3561 C.ar    
  27 C27           -2.6419     9.7049    -0.5087 C.ar    
  28 C28           -2.6938    12.7817    -1.4608 C.3     
  29 C29           -4.1407    13.1903    -1.1771 C.3     
  30 C30           -4.8441    12.0729    -0.4042 C.3     
  31 C31           -4.1543    14.4735    -0.3440 C.3     
  32 C32           -4.8706    13.4332    -2.4997 C.3     
  33 Br33          -2.6081     6.8948    -4.2484 Br      
  34 C34            0.2030    -4.2994    -0.0216 C.3     
  35 H35           -0.9247    -0.5585     0.0082 H       
  36 H36            3.3123     1.9951    -0.0188 H       
  37 H37            1.1634     3.1807     0.0080 H       
  38 H38           -0.4089     4.0585     0.0264 H       
  39 H39           -4.6717     3.9859     0.0459 H       
  40 H40           -4.6418     1.5261     0.0332 H       
  41 H41           -2.4985     0.3181     0.0053 H       
  42 H42            3.9477    -0.7874    -0.9227 H       
  43 H43           -3.4620     6.0219     0.5655 H       
  44 H44           -1.6823     6.0527     0.5575 H       
  45 H45           -2.6052     7.9199     0.6356 H       
  46 H46           -2.6497    10.3456     0.3607 H       
  47 H47           -2.1738    12.6087    -0.5186 H       
  48 H48           -2.1927    13.5778    -2.0114 H       
  49 H49           -4.3240    11.8998     0.5380 H       
  50 H50           -5.8749    12.3640    -0.2021 H       
  51 H51           -4.8344    11.1587    -0.9977 H       
  52 H52           -3.6532    15.2696    -0.8946 H       
  53 H53           -5.1851    14.7646    -0.1419 H       
  54 H54           -3.6343    14.3005     0.5982 H       
  55 H55           -4.8609    12.5191    -3.0933 H       
  56 H56           -5.9014    13.7244    -2.2976 H       
  57 H57           -4.3695    14.2293    -3.0504 H       
  58 H58            0.7330    -4.6202    -0.9184 H       
  59 H59            0.7503    -4.6292     0.8615 H       
  60 H60           -0.7958    -4.7360    -0.0141 H       
@<TRIPOS>BOND
   1    1    2 ar
   2    1    6 ar
   3    1    7 1
   4    2    3 ar
   5    2   35 1
   6    3    4 ar
   7    3   13 1
   8    4    5 ar
   9    4   16 1
  10    5    6 ar
  11    5   36 1
  12    6   37 1
  13    7    8 ar
  14    7   12 ar
  15    8    9 ar
  16    8   38 1
  17    9   10 ar
  18    9   17 1
  19   10   11 ar
  20   10   39 1
  21   11   12 ar
  22   11   40 1
  23   12   41 1
  24   13   14 2
  25   13   15 1
  26   15   34 1
  27   16   42 1
  28   17   18 1
  29   17   43 1
  30   17   44 1
  31   18   25 1
  32   19   20 1
  33   19   23 1
  34   19   28 1
  35   20   21 2
  36   21   22 1
  37   22   23 ar
  38   22   24 ar
  39   23   27 ar
  40   24   25 ar
  41   24   33 1
  42   25   26 ar
  43   26   27 ar
  44   26   45 1
  45   27   46 1
  46   28   29 1
  47   28   47 1
  48   28   48 1
  49   29   30 1
  50   29   31 1
  51   29   32 1
  52   30   49 1
  53   30   50 1
  54   30   51 1
  55   31   52 1
  56   31   53 1
  57   31   54 1
  58   32   55 1
  59   32   56 1
  60   32   57 1
  61   34   58 1
  62   34   59 1
  63   34   60 1

#	End of record

