#	Name: ASD09800036
#	Creating user name:	WinNT
#	Creation time:	15. 06. 2019 21:24

#	Modifying user name:	WinNT
#	Modification time:	15. 06. 2019 21:24

#	Program:	/corina/corina34_cracker 3.40 0067  02.08.2006

@<TRIPOS>MOLECULE
ASD09800036
  55   59    0    0    0
SMALL
NO_CHARGES


@<TRIPOS>ATOM
   1 C1            -3.0996     1.2469     2.9030 C.2     
   2 N2            -4.1964     0.6166     3.2815 N.2     
   3 C3            -4.9384    -0.0755     2.4068 C.2     
   4 C4            -4.6014    -0.1598     1.1074 C.2     
   5 C5            -2.7029     1.1960     1.5506 C.2     
   6 C6            -1.6431     1.7228     0.8239 C.2     
   7 N7            -3.4681     0.4762     0.6511 N.pl3   
   8 C8            -2.8785     0.5891    -0.5520 C.2     
   9 N9            -1.8021     1.3270    -0.4488 N.2     
  10 C10           -0.5452     2.5629     1.3530 C.ar    
  11 C11            0.3347     4.7315     1.9094 C.ar    
  12 C12            1.5141     4.1349     2.3441 C.ar    
  13 C13            1.6637     2.7555     2.2777 C.ar    
  14 C14            0.6418     1.9710     1.7855 C.ar    
  15 C15           -0.6932     3.9513     1.4150 C.ar    
  16 N16            2.5547     4.9273     2.8443 N.am    
  17 C17            3.8153     4.4508     2.8629 C.2     
  18 N18            4.7986     5.1688     3.4410 N.am    
  19 O19            4.0655     3.3733     2.3580 O.2     
  20 C20            6.0856     4.6306     3.5515 C.ar    
  21 C21            7.8609     3.2913     2.6547 C.ar    
  22 C22            6.5901     3.8210     2.5426 C.ar    
  23 C23            6.8631     4.9098     4.6680 C.ar    
  24 C24            8.1328     4.3772     4.7740 C.ar    
  25 C25            8.6304     3.5669     3.7698 C.ar    
  26 C26            8.9772     4.6797     5.9851 C.3     
  27 F27            8.7431     3.7139     6.9698 F       
  28 F28           10.3294     4.6622     5.6269 F       
  29 F29            8.6429     5.9437     6.4828 F       
  30 N30           -2.3486     1.9566     3.8248 N.pl3   
  31 C31           -3.3788    -0.0418    -1.8259 C.3     
  32 C32           -4.7985     0.3074    -2.2769 C.3     
  33 C33           -3.5947     0.8756    -3.0312 C.3     
  34 C34           -2.8800    -1.4622    -2.0990 C.3     
  35 F35           -1.8387     4.5294     0.9922 F       
  36 F36            0.1925     6.0734     1.9754 F       
  37 H37           -5.8289    -0.5785     2.7536 H       
  38 H38           -5.2176    -0.7250     0.4238 H       
  39 H39            2.5808     2.2961     2.6158 H       
  40 H40            0.7602     0.8987     1.7352 H       
  41 H41            2.3683     5.8190     3.1774 H       
  42 H42            4.6141     6.0585     3.7805 H       
  43 H43            8.2538     2.6611     1.8705 H       
  44 H44            5.9895     3.6053     1.6714 H       
  45 H45            6.4754     5.5432     5.4522 H       
  46 H46            9.6237     3.1515     3.8551 H       
  47 H47           -2.5795     1.9243     4.7663 H       
  48 H48           -1.5916     2.4860     3.5289 H       
  49 H49           -5.3771    -0.4747    -2.7686 H       
  50 H50           -5.3707     0.9934    -1.6523 H       
  51 H51           -3.3749     1.9354    -2.9027 H       
  52 H52           -3.3813     0.4673    -4.0190 H       
  53 H53           -3.1689    -2.1136    -1.2741 H       
  54 H54           -3.3218    -1.8306    -3.0248 H       
  55 H55           -1.7941    -1.4542    -2.1925 H       
@<TRIPOS>BOND
   1    1    2 2
   2    1   30 1
   3    1    5 1
   4    2    3 1
   5    3    4 2
   6    3   37 1
   7    4    7 1
   8    4   38 1
   9    5    7 1
  10    5    6 2
  11    6    9 1
  12    6   10 1
  13    7    8 1
  14    8    9 2
  15    8   31 1
  16   10   15 ar
  17   10   14 ar
  18   11   12 ar
  19   11   15 ar
  20   11   36 1
  21   12   13 ar
  22   12   16 1
  23   13   14 ar
  24   13   39 1
  25   14   40 1
  26   15   35 1
  27   16   17 am
  28   16   41 1
  29   17   18 am
  30   17   19 2
  31   18   20 1
  32   18   42 1
  33   20   23 ar
  34   20   22 ar
  35   21   22 ar
  36   21   25 ar
  37   21   43 1
  38   22   44 1
  39   23   24 ar
  40   23   45 1
  41   24   25 ar
  42   24   26 1
  43   25   46 1
  44   26   27 1
  45   26   28 1
  46   26   29 1
  47   30   47 1
  48   30   48 1
  49   31   32 1
  50   31   33 1
  51   31   34 1
  52   32   33 1
  53   32   49 1
  54   32   50 1
  55   33   51 1
  56   33   52 1
  57   34   53 1
  58   34   54 1
  59   34   55 1

#	End of record

