#	Name: ASD06170227
#	Creating user name:	WinNT
#	Creation time:	15. 06. 2019 21:05

#	Modifying user name:	WinNT
#	Modification time:	15. 06. 2019 21:05

#	Program:	/corina/corina34_cracker 3.40 0067  02.08.2006

@<TRIPOS>MOLECULE
ASD06170227
  61   65    0    0    0
SMALL
NO_CHARGES


@<TRIPOS>ATOM
   1 C1             0.1898     1.2251    -0.3595 C.2     
   2 C2             0.4899    -0.1051    -0.7650 C.2     
   3 C3             1.8002    -0.5486    -0.5913 C.2     
   4 C4             2.7265     0.3398    -0.0328 C.2     
   5 N5             2.3651     1.5462     0.3127 N.2     
   6 N6             1.1691     1.9857     0.1662 N.am    
   7 C7            -0.5438    -0.9801    -1.3456 C.2     
   8 O8            -0.2367    -2.0654    -1.8001 O.2     
   9 N9            -1.8298    -0.5775    -1.3729 N.am    
  10 C10            0.8730     3.2932     0.5646 C.ar    
  11 C11           -0.2068     3.5377     1.4039 C.ar    
  12 C12           -0.4963     4.8300     1.7953 C.ar    
  13 C13            0.2872     5.8802     1.3527 C.ar    
  14 C14            1.3628     5.6404     0.5171 C.ar    
  15 C15            1.6614     4.3499     0.1265 C.ar    
  16 O16           -0.9368     1.6719    -0.4906 O.2     
  17 C17            4.1533    -0.0999     0.1720 C.3     
  18 C18           -2.7955    -1.3697    -1.9934 C.ar    
  19 C19           -2.5549    -2.7263    -2.1814 C.ar    
  20 C20           -3.5194    -3.5027    -2.7975 C.ar    
  21 C21           -4.7015    -2.8907    -3.2078 C.ar    
  22 C22           -4.8719    -1.5333    -2.9872 C.ar    
  23 N23           -3.9328    -0.8232    -2.3918 N.ar    
  24 O24           -5.6761    -3.6163    -3.8178 O.3     
  25 N25           -8.1145    -5.9347    -1.4324 N.ar    
  26 C26           -7.1144    -5.2691    -0.9043 C.ar    
  27 C27           -6.2721    -4.4784    -1.6757 C.ar    
  28 C28           -6.4818    -4.3807    -3.0400 C.ar    
  29 C29           -7.5616    -5.1017    -3.5976 C.ar    
  30 C30           -7.8366    -5.0526    -4.9724 C.ar    
  31 C31           -8.8878    -5.7624    -5.4767 C.ar    
  32 C32           -9.6955    -6.5396    -4.6344 C.ar    
  33 C33           -9.4503    -6.6046    -3.2930 C.ar    
  34 C34           -8.3753    -5.8861    -2.7442 C.ar    
  35 O35          -10.7366    -7.2371    -5.1601 O.3     
  36 C36          -11.5235    -8.0108    -4.2523 C.3     
  37 O37           -9.1546    -5.7150    -6.8092 O.3     
  38 C38           -8.2957    -4.9050    -7.6144 C.3     
  39 H39            2.0918    -1.5480    -0.8788 H       
  40 H40           -2.0837     0.2631    -0.9609 H       
  41 H41           -0.8192     2.7181     1.7496 H       
  42 H42           -1.3357     5.0208     2.4475 H       
  43 H43            0.0583     6.8899     1.6600 H       
  44 H44            1.9726     6.4628     0.1733 H       
  45 H45            2.5044     4.1628    -0.5222 H       
  46 H46            4.7371     0.1346    -0.7181 H       
  47 H47            4.5747     0.4223     1.0309 H       
  48 H48            4.1801    -1.1747     0.3513 H       
  49 H49           -1.6264    -3.1679    -1.8509 H       
  50 H50           -3.3597    -4.5589    -2.9571 H       
  51 H51           -5.7858    -1.0519    -3.3026 H       
  52 H52           -6.9413    -5.3380     0.1596 H       
  53 H53           -5.4574    -3.9416    -1.2124 H       
  54 H54           -7.2201    -4.4559    -5.6283 H       
  55 H55          -10.0809    -7.2067    -2.6557 H       
  56 H56          -12.3188    -8.5160    -4.8003 H       
  57 H57          -10.8911    -8.7522    -3.7640 H       
  58 H58          -11.9609    -7.3543    -3.5001 H       
  59 H59           -8.3420    -3.8720    -7.2695 H       
  60 H60           -7.2717    -5.2695    -7.5335 H       
  61 H61           -8.6184    -4.9556    -8.6543 H       
@<TRIPOS>BOND
   1    1    2 1
   2    1    6 am
   3    1   16 2
   4    2    3 2
   5    2    7 1
   6    3    4 1
   7    3   39 1
   8    4    5 2
   9    4   17 1
  10    5    6 1
  11    6   10 1
  12    7    8 2
  13    7    9 am
  14    9   18 1
  15    9   40 1
  16   10   11 ar
  17   10   15 ar
  18   11   12 ar
  19   11   41 1
  20   12   13 ar
  21   12   42 1
  22   13   14 ar
  23   13   43 1
  24   14   15 ar
  25   14   44 1
  26   15   45 1
  27   17   46 1
  28   17   47 1
  29   17   48 1
  30   18   19 ar
  31   18   23 ar
  32   19   20 ar
  33   19   49 1
  34   20   21 ar
  35   20   50 1
  36   21   22 ar
  37   21   24 1
  38   22   23 ar
  39   22   51 1
  40   24   28 1
  41   25   26 ar
  42   25   34 ar
  43   26   27 ar
  44   26   52 1
  45   27   28 ar
  46   27   53 1
  47   28   29 ar
  48   29   30 ar
  49   29   34 ar
  50   30   31 ar
  51   30   54 1
  52   31   32 ar
  53   31   37 1
  54   32   33 ar
  55   32   35 1
  56   33   34 ar
  57   33   55 1
  58   35   36 1
  59   36   56 1
  60   36   57 1
  61   36   58 1
  62   37   38 1
  63   38   59 1
  64   38   60 1
  65   38   61 1

#	End of record

