#	Name: ASD01209139
#	Creating user name:	WinNT
#	Creation time:	15. 06. 2019 19:11

#	Modifying user name:	WinNT
#	Modification time:	15. 06. 2019 19:11

#	Program:	/corina/corina34_cracker 3.40 0067  02.08.2006

@<TRIPOS>MOLECULE
ASD01209139
  68   71    0    0    0
SMALL
NO_CHARGES


@<TRIPOS>ATOM
   1 C1            -0.0342     1.3238    -0.1610 C.ar    
   2 C2            -0.1396    -0.0586    -0.1113 C.ar    
   3 C3            -1.3823    -0.6589     0.0348 C.ar    
   4 C4            -2.5231     0.1207     0.1311 C.ar    
   5 C5            -2.4216     1.5116     0.0816 C.ar    
   6 C6            -1.1697     2.1111    -0.0596 C.ar    
   7 O7             1.1852     1.9066    -0.3037 O.3     
   8 C8             1.8439     1.7267    -1.4760 C.ar    
   9 O9            -1.4801    -2.0135     0.0829 O.3     
  10 C10           -2.0891    -2.6463    -0.9540 C.ar    
  11 C11           -2.3297    -4.0114    -0.8902 C.ar    
  12 C12           -3.6364     2.3476     0.1841 C.2     
  13 N13           -3.5361     3.6908     0.1360 N.am    
  14 O14           -4.7258     1.8236     0.3117 O.2     
  15 C15           -4.6776     4.4763     0.2323 C.2     
  16 P16           -5.9286     8.5037     1.9831 P.3     
  17 O17           -6.9171     7.8104     2.8391 O.2     
  18 C18           -2.9489    -4.6523    -1.9457 C.ar    
  19 C19           -3.3289    -3.9348    -3.0649 C.ar    
  20 C20           -3.0898    -2.5746    -3.1312 C.ar    
  21 C21           -2.4765    -1.9277    -2.0759 C.ar    
  22 S22           -4.1185    -4.7555    -4.4094 S.o2    
  23 O23           -3.8086    -3.9530    -5.5405 O.2     
  24 O24           -3.6627    -6.0982    -4.3168 O.2     
  25 C25           -5.8883    -4.6560    -4.0240 C.3     
  26 C26           -6.0379     7.8567     0.2822 C.3     
  27 N27           -4.6923     5.7722     0.1975 N.2     
  28 S28           -6.2684     3.8748     0.4065 S.3     
  29 C29           -6.8990     5.5196     0.4304 C.2     
  30 C30           -5.8698     6.3593     0.3026 C.2     
  31 C31            3.0476     2.3847    -1.7075 C.ar    
  32 N32            1.3449     0.9194    -2.4010 N.ar    
  33 C33            1.9894     0.7458    -3.5425 C.ar    
  34 C34            3.1825     1.4045    -3.7715 C.ar    
  35 N35            3.6859     2.2070    -2.8488 N.ar    
  36 O36           -6.2383    10.0836     1.9772 O.3     
  37 C37           -6.6351    12.3178     2.8086 C.3     
  38 C38           -6.3324    10.8626     3.1715 C.3     
  39 O39           -4.4472     8.2492     2.5599 O.3     
  40 C40           -2.6028     8.1881     4.1203 C.3     
  41 C41           -4.0739     8.5496     3.9062 C.3     
  42 H42            0.7479    -0.6694    -0.1868 H       
  43 H43           -3.4899    -0.3473     0.2441 H       
  44 H44           -1.0867     3.1872    -0.0983 H       
  45 H45           -2.0328    -4.5723    -0.0164 H       
  46 H46           -2.6668     4.1089     0.0342 H       
  47 H47           -3.1361    -5.7149    -1.8967 H       
  48 H48           -3.3869    -2.0166    -4.0068 H       
  49 H49           -2.2901    -0.8652    -2.1281 H       
  50 H50           -6.1866    -3.6099    -3.9539 H       
  51 H51           -6.4600    -5.1448    -4.8128 H       
  52 H52           -6.0816    -5.1534    -3.0735 H       
  53 H53           -7.0111     8.1073    -0.1400 H       
  54 H54           -5.2518     8.3024    -0.3272 H       
  55 H55           -7.9376     5.7994     0.5281 H       
  56 H56            3.4590     3.0403    -0.9543 H       
  57 H57            1.5831     0.0880    -4.2966 H       
  58 H58            3.7072     1.2602    -4.7044 H       
  59 H59           -5.8346    12.7099     2.1812 H       
  60 H60           -7.5794    12.3683     2.2665 H       
  61 H61           -6.7069    12.9121     3.7195 H       
  62 H62           -7.1329    10.4706     3.7989 H       
  63 H63           -5.3881    10.8122     3.7136 H       
  64 H64           -1.9832     8.7654     3.4340 H       
  65 H65           -2.3181     8.4172     5.1472 H       
  66 H66           -2.4590     7.1241     3.9321 H       
  67 H67           -4.2177     9.6136     4.0943 H       
  68 H68           -4.6935     7.9723     4.5924 H       
@<TRIPOS>BOND
   1    1    2 ar
   2    1    7 1
   3    1    6 ar
   4    2    3 ar
   5    2   42 1
   6    3    4 ar
   7    3    9 1
   8    4    5 ar
   9    4   43 1
  10    5    6 ar
  11    5   12 1
  12    6   44 1
  13    7    8 1
  14    8   31 ar
  15    8   32 ar
  16    9   10 1
  17   10   11 ar
  18   10   21 ar
  19   11   18 ar
  20   11   45 1
  21   12   13 am
  22   12   14 2
  23   13   15 1
  24   13   46 1
  25   15   27 2
  26   15   28 1
  27   16   17 2
  28   16   36 1
  29   16   39 1
  30   16   26 1
  31   18   19 ar
  32   18   47 1
  33   19   20 ar
  34   19   22 1
  35   20   21 ar
  36   20   48 1
  37   21   49 1
  38   22   23 2
  39   22   24 2
  40   22   25 1
  41   25   50 1
  42   25   51 1
  43   25   52 1
  44   26   30 1
  45   26   53 1
  46   26   54 1
  47   27   30 1
  48   28   29 1
  49   29   30 2
  50   29   55 1
  51   31   35 ar
  52   31   56 1
  53   32   33 ar
  54   33   34 ar
  55   33   57 1
  56   34   35 ar
  57   34   58 1
  58   36   38 1
  59   37   38 1
  60   37   59 1
  61   37   60 1
  62   37   61 1
  63   38   62 1
  64   38   63 1
  65   39   41 1
  66   40   41 1
  67   40   64 1
  68   40   65 1
  69   40   66 1
  70   41   67 1
  71   41   68 1

#	End of record

