#	Name: ASD03090347
#	Creating user name:	WinNT
#	Creation time:	15. 06. 2019 20:28

#	Modifying user name:	WinNT
#	Modification time:	15. 06. 2019 20:28

#	Program:	/corina/corina34_cracker 3.40 0067  02.08.2006

@<TRIPOS>MOLECULE
ASD03090347
  45   48    0    0    0
SMALL
NO_CHARGES


@<TRIPOS>ATOM
   1 N1            -0.0660     1.2345    -0.3126 N.ar    
   2 C2             0.8437     1.6345     0.5548 C.ar    
   3 C3             2.0820     1.0259     0.6147 C.ar    
   4 C4             2.3626    -0.0287    -0.2627 C.ar    
   5 C5             1.3676    -0.4187    -1.1652 C.ar    
   6 C6             0.1580     0.2454    -1.1561 C.ar    
   7 C7             3.6754    -0.7113    -0.2363 C.2     
   8 N8             7.1892    -0.7862    -0.1956 N.pl3   
   9 C9             7.6535     0.5276    -0.3269 C.ar    
  10 C10            8.8456     0.9061     0.2757 C.ar    
  11 C11            9.3047     2.2063     0.1450 C.ar    
  12 C12            8.5689     3.1317    -0.5912 C.ar    
  13 C13            7.3797     2.7500    -1.1910 C.ar    
  14 C14            6.9248     1.4514    -1.0647 C.ar    
  15 N15            4.8549    -0.1234    -0.2336 N.2     
  16 C16            5.8175    -1.0461    -0.2060 C.2     
  17 N17            5.2673    -2.2387    -0.1905 N.2     
  18 N18            3.8761    -2.0477    -0.2046 N.pl3   
  19 C19            2.8468    -3.0900    -0.1954 C.3     
  20 C20            2.3988    -3.3411     1.2214 C.2     
  21 N21            1.4512    -4.2655     1.4747 N.am    
  22 O22           10.4228     2.8228     0.6281 O.3     
  23 C23           10.5718     4.0202    -0.1575 C.3     
  24 O24            9.2270     4.3287    -0.5691 O.3     
  25 F25           11.0976     5.0567     0.6212 F       
  26 F26           11.3838     3.7797    -1.2711 F       
  27 O27            2.8909    -2.7114     2.1336 O.2     
  28 C28            1.0157    -4.5096     2.8520 C.3     
  29 Cl29           3.2725     1.5604     1.7596 Cl      
  30 C30           -0.9222    -0.1651    -2.1233 C.3     
  31 H31            0.6173     2.4491     1.2268 H       
  32 H32            1.5436    -1.2274    -1.8591 H       
  33 H33            7.8204    -1.5162    -0.0975 H       
  34 H34            9.4146     0.1871     0.8464 H       
  35 H35            6.8091     3.4679    -1.7615 H       
  36 H36            5.9977     1.1565    -1.5336 H       
  37 H37            1.9954    -2.7652    -0.7935 H       
  38 H38            3.2563    -4.0088    -0.6152 H       
  39 H39            1.0577    -4.7692     0.7451 H       
  40 H40            0.2498    -5.2851     2.8589 H       
  41 H41            1.8671    -4.8344     3.4501 H       
  42 H42            0.6062    -3.5908     3.2718 H       
  43 H43           -1.5454    -0.9342    -1.6670 H       
  44 H44           -1.5365     0.7007    -2.3708 H       
  45 H45           -0.4661    -0.5587    -3.0317 H       
@<TRIPOS>BOND
   1    1    2 ar
   2    1    6 ar
   3    2    3 ar
   4    2   31 1
   5    3    4 ar
   6    3   29 1
   7    4    5 ar
   8    4    7 1
   9    5    6 ar
  10    5   32 1
  11    6   30 1
  12    7   15 2
  13    7   18 1
  14    8    9 1
  15    8   16 1
  16    8   33 1
  17    9   10 ar
  18    9   14 ar
  19   10   11 ar
  20   10   34 1
  21   11   12 ar
  22   11   22 1
  23   12   13 ar
  24   12   24 1
  25   13   14 ar
  26   13   35 1
  27   14   36 1
  28   15   16 1
  29   16   17 2
  30   17   18 1
  31   18   19 1
  32   19   20 1
  33   19   37 1
  34   19   38 1
  35   20   21 am
  36   20   27 2
  37   21   28 1
  38   21   39 1
  39   22   23 1
  40   23   24 1
  41   23   25 1
  42   23   26 1
  43   28   40 1
  44   28   41 1
  45   28   42 1
  46   30   43 1
  47   30   44 1
  48   30   45 1

#	End of record

