#	Name: ASD08170550
#	Creating user name:	WinNT
#	Creation time:	15. 06. 2019 21:17

#	Modifying user name:	WinNT
#	Modification time:	15. 06. 2019 21:17

#	Program:	/corina/corina34_cracker 3.40 0067  02.08.2006

@<TRIPOS>MOLECULE
ASD08170550
  63   68    0    0    0
SMALL
NO_CHARGES


@<TRIPOS>ATOM
   1 C1            -0.0184     1.5028     0.0103 C.3     
   2 C2             0.0021    -0.0041     0.0020 C.2     
   3 N3             0.4943    -0.6655    -1.0641 N.am    
   4 C4             0.5132    -2.0561    -1.0718 C.2     
   5 S5             1.1029    -3.0397    -2.3444 S.3     
   6 C6             0.6910    -4.4723    -1.4012 C.2     
   7 C7             0.8995    -5.9041    -1.8224 C.3     
   8 C8            -0.3429    -6.4042    -2.5621 C.3     
   9 C9            -1.6442    -8.5345    -3.9149 C.3     
  10 C10           -1.5908    -9.9808    -4.4113 C.3     
  11 C11           -2.8804   -10.3187    -5.1139 C.2     
  12 S12           -4.3267   -10.9961    -4.3649 S.3     
  13 C13           -5.1004   -10.9840    -5.8933 C.2     
  14 N14           -6.3990   -11.4114    -6.1479 N.am    
  15 C15           -6.8952   -11.3510    -7.3996 C.2     
  16 C16           -8.3024   -11.8143    -7.6755 C.3     
  17 N17            0.0918    -2.8242    -0.1129 N.2     
  18 N18            0.1774    -4.0725    -0.2813 N.2     
  19 N19           -3.1279   -10.1588    -6.3751 N.2     
  20 N20           -4.2733   -10.5086    -6.7748 N.2     
  21 O21           -6.2091   -10.9238    -8.3039 O.2     
  22 O22           -0.4244    -0.6216     0.9548 O.2     
  23 S23           -0.0918    -8.1277    -3.0692 S.3     
  24 O24           -0.5467     1.9981     1.2522 O.3     
  25 C25            1.4208     2.0705    -0.0004 C.3     
  26 C26            1.6978     2.2487     1.4799 C.ar    
  27 C27            0.4743     2.1822     2.1336 C.ar    
  28 C28            2.8644     2.4448     2.1854 C.ar    
  29 C29            2.8264     2.5719     3.5626 C.ar    
  30 C30            1.6147     2.5014     4.2253 C.ar    
  31 C31            0.4450     2.3081     3.5205 C.ar    
  32 O32           -8.6532   -11.5864    -9.0509 O.3     
  33 C33           -9.4780   -12.5827    -9.4755 C.ar    
  34 C34           -9.3976   -13.6917    -8.6435 C.ar    
  35 C35           -8.4087   -13.3522    -7.5451 C.3     
  36 C36          -10.3371   -12.6248   -10.5711 C.ar    
  37 C37          -11.0874   -13.7545   -10.8225 C.ar    
  38 C38          -10.9940   -14.8550    -9.9903 C.ar    
  39 C39          -10.1451   -14.8202    -8.8984 C.ar    
  40 H40           -0.5903     1.8844    -0.8355 H       
  41 H41            0.8354    -0.1716    -1.8261 H       
  42 H42            1.7649    -5.9663    -2.4823 H       
  43 H43            1.0702    -6.5212    -0.9403 H       
  44 H44           -1.2082    -6.3420    -1.9022 H       
  45 H45           -0.5136    -5.7871    -3.4442 H       
  46 H46           -1.7823    -7.8641    -4.7632 H       
  47 H47           -2.4770    -8.4190    -3.2212 H       
  48 H48           -0.7580   -10.0963    -5.1050 H       
  49 H49           -1.4527   -10.6512    -3.5630 H       
  50 H50           -6.9478   -11.7531    -5.4247 H       
  51 H51           -9.0083   -11.3178    -7.0096 H       
  52 H52            2.1170     1.3589    -0.4442 H       
  53 H53            1.4584     3.0270    -0.5217 H       
  54 H54            3.8086     2.4990     1.6638 H       
  55 H55            3.7398     2.7252     4.1180 H       
  56 H56            1.5842     2.5981     5.3005 H       
  57 H57           -0.4971     2.2540     4.0458 H       
  58 H58           -7.4445   -13.8263    -7.7287 H       
  59 H59           -8.8001   -13.6342    -6.5676 H       
  60 H60          -10.4162   -11.7697   -11.2260 H       
  61 H61          -11.7517   -13.7797   -11.6737 H       
  62 H62          -11.5819   -15.7382   -10.1917 H       
  63 H63          -10.0690   -15.6773    -8.2458 H       
@<TRIPOS>BOND
   1    1    2 1
   2    1   25 1
   3    1   24 1
   4    1   40 1
   5    2    3 am
   6    2   22 2
   7    3    4 1
   8    3   41 1
   9    4    5 1
  10    4   17 2
  11    5    6 1
  12    6    7 1
  13    6   18 2
  14    7    8 1
  15    7   42 1
  16    7   43 1
  17    8   23 1
  18    8   44 1
  19    8   45 1
  20    9   10 1
  21    9   23 1
  22    9   46 1
  23    9   47 1
  24   10   11 1
  25   10   48 1
  26   10   49 1
  27   11   12 1
  28   11   19 2
  29   12   13 1
  30   13   14 1
  31   13   20 2
  32   14   15 am
  33   14   50 1
  34   15   16 1
  35   15   21 2
  36   16   32 1
  37   16   35 1
  38   16   51 1
  39   17   18 1
  40   19   20 1
  41   24   27 1
  42   25   26 1
  43   25   52 1
  44   25   53 1
  45   26   27 ar
  46   26   28 ar
  47   27   31 ar
  48   28   29 ar
  49   28   54 1
  50   29   30 ar
  51   29   55 1
  52   30   31 ar
  53   30   56 1
  54   31   57 1
  55   32   33 1
  56   33   34 ar
  57   33   36 ar
  58   34   35 1
  59   34   39 ar
  60   35   58 1
  61   35   59 1
  62   36   37 ar
  63   36   60 1
  64   37   38 ar
  65   37   61 1
  66   38   39 ar
  67   38   62 1
  68   39   63 1

#	End of record

