#	Name: ASD02562044
#	Creating user name:	WinNT
#	Creation time:	15. 06. 2019 20:25

#	Modifying user name:	WinNT
#	Modification time:	15. 06. 2019 20:25

#	Program:	/corina/corina34_cracker 3.40 0067  02.08.2006

@<TRIPOS>MOLECULE
ASD02562044
  43   46    0    0    0
SMALL
NO_CHARGES


@<TRIPOS>ATOM
   1 C1             0.1366     1.3886     1.1098 C.2     
   2 C2             0.1576    -0.0176     1.0968 C.2     
   3 C3             1.2858    -0.6790     0.7702 C.2     
   4 N4             2.4263     0.0059     0.4468 N.pl3   
   5 C5             2.4359     1.3821     0.4504 C.2     
   6 C6             1.2600     2.0842     0.7908 C.2     
   7 C7             3.6782    -0.4088     0.0855 C.2     
   8 C8             4.4299     0.7281    -0.1250 C.2     
   9 N9             3.6441     1.7959     0.1055 N.2     
  10 N10            4.1119    -1.7285    -0.0446 N.3     
  11 C11            5.8539     0.7669    -0.5330 C.ar    
  12 C12            2.9885    -2.6666     0.0814 C.3     
  13 C13            3.3287    -3.9700    -0.6441 C.3     
  14 C14            2.1586    -4.9471    -0.5128 C.3     
  15 C15            1.9015    -5.2391     0.9669 C.3     
  16 C16            1.5613    -3.9357     1.6923 C.3     
  17 C17            2.7314    -2.9586     1.5611 C.3     
  18 C18            6.3119     1.7761    -1.3797 C.ar    
  19 C19            7.6389     1.8078    -1.7561 C.ar    
  20 C20            8.5153     0.8402    -1.2948 C.ar    
  21 C21            8.0659    -0.1639    -0.4541 C.ar    
  22 C22            6.7421    -0.2021    -0.0671 C.ar    
  23 Cl23          10.1835     0.8858    -1.7729 Cl      
  24 H24           -0.7708     1.9143     1.3682 H       
  25 H25           -0.7349    -0.5704     1.3503 H       
  26 H26            1.2902    -1.7590     0.7640 H       
  27 H27            1.2527     3.1641     0.7976 H       
  28 H28            4.6002    -1.8643    -0.9170 H       
  29 H29            2.0957    -2.2261    -0.3624 H       
  30 H30            3.5118    -3.7620    -1.6982 H       
  31 H31            4.2214    -4.4106    -0.2002 H       
  32 H32            1.2659    -4.5066    -0.9567 H       
  33 H33            2.4010    -5.8757    -1.0297 H       
  34 H34            1.0680    -5.9352     1.0603 H       
  35 H35            2.7943    -5.6797     1.4107 H       
  36 H36            0.6686    -3.4952     1.2485 H       
  37 H37            1.3782    -4.1438     2.7465 H       
  38 H38            3.6241    -3.3992     2.0050 H       
  39 H39            2.4890    -2.0301     2.0779 H       
  40 H40            5.6291     2.5311    -1.7403 H       
  41 H41            7.9946     2.5886    -2.4120 H       
  42 H42            8.7537    -0.9162    -0.0972 H       
  43 H43            6.3926    -0.9855     0.5890 H       
@<TRIPOS>BOND
   1    1    2 1
   2    1    6 2
   3    1   24 1
   4    2    3 2
   5    2   25 1
   6    3    4 1
   7    3   26 1
   8    4    5 1
   9    4    7 1
  10    5    6 1
  11    5    9 2
  12    6   27 1
  13    7    8 2
  14    7   10 1
  15    8    9 1
  16    8   11 1
  17   10   12 1
  18   10   28 1
  19   11   18 ar
  20   11   22 ar
  21   12   13 1
  22   12   17 1
  23   12   29 1
  24   13   14 1
  25   13   30 1
  26   13   31 1
  27   14   15 1
  28   14   32 1
  29   14   33 1
  30   15   16 1
  31   15   34 1
  32   15   35 1
  33   16   17 1
  34   16   36 1
  35   16   37 1
  36   17   38 1
  37   17   39 1
  38   18   19 ar
  39   18   40 1
  40   19   20 ar
  41   19   41 1
  42   20   21 ar
  43   20   23 1
  44   21   22 ar
  45   21   42 1
  46   22   43 1

#	End of record

