#	Name: ASD00311346
#	Creating user name:	WinNT
#	Creation time:	15. 06. 2019 18:34

#	Modifying user name:	WinNT
#	Modification time:	15. 06. 2019 18:34

#	Program:	/corina/corina34_cracker 3.40 0067  02.08.2006

@<TRIPOS>MOLECULE
ASD00311346
  54   58    0    0    0
SMALL
NO_CHARGES


@<TRIPOS>ATOM
   1 C1            -0.0167     1.3779     0.0096 C.2     
   2 C2             0.0021    -0.0041     0.0020 C.2     
   3 C3             1.2588    -0.6766    -0.0131 C.2     
   4 C4             2.4315     0.0674    -0.0199 C.2     
   5 C5             2.3575     1.4753    -0.0117 C.2     
   6 N6             1.1649     2.0906     0.0022 N.am    
   7 C7            -1.3431    -0.5749     0.0118 C.2     
   8 C8            -2.3223     0.3256     0.0260 C.2     
   9 S9            -1.6794     1.9560     0.0358 S.3     
  10 O10            3.3823     2.1374    -0.0171 O.2     
  11 C11            3.7477    -0.6118    -0.0352 C.ar    
  12 C12            4.5938    -0.4743    -1.1354 C.ar    
  13 C13            5.8189    -1.1092    -1.1435 C.ar    
  14 C14            6.2085    -1.8808    -0.0633 C.ar    
  15 C15            5.3736    -2.0209     1.0309 C.ar    
  16 C16            4.1483    -1.3867     1.0531 C.ar    
  17 O17            1.3089    -2.0290    -0.0204 O.3     
  18 C18           -1.5956    -2.0354     0.0059 C.ar    
  19 C19           -1.2008    -2.8204     1.0940 C.ar    
  20 C20           -1.4391    -4.1840     1.0830 C.ar    
  21 C21           -2.0662    -4.7703    -0.0010 C.ar    
  22 C22           -2.4597    -3.9967    -1.0836 C.ar    
  23 C23           -2.2320    -2.6305    -1.0809 C.ar    
  24 O24           -3.0751    -4.5801    -2.1466 O.3     
  25 C25           -3.2838    -5.9922    -2.0806 C.3     
  26 O26           -0.5836    -2.2454     2.1605 O.3     
  27 C27           -0.2084    -3.1084     3.2358 C.3     
  28 C28            0.4572    -2.3002     4.3198 C.ar    
  29 C29           -0.3016    -1.7473     5.3344 C.ar    
  30 C30            0.3089    -1.0059     6.3286 C.ar    
  31 C31            1.6783    -0.8177     6.3085 C.ar    
  32 C32            2.4372    -1.3714     5.2943 C.ar    
  33 C33            1.8272    -2.1164     4.3025 C.ar    
  34 H34            1.1327     3.0600     0.0077 H       
  35 H35           -3.3748     0.0838     0.0344 H       
  36 H36            4.2906     0.1275    -1.9794 H       
  37 H37            6.4749    -1.0038    -1.9950 H       
  38 H38            7.1682    -2.3760    -0.0744 H       
  39 H39            5.6832    -2.6246     1.8712 H       
  40 H40            3.4992    -1.4935     1.9095 H       
  41 H41            2.2062    -2.3894    -0.0307 H       
  42 H42           -1.1343    -4.7911     1.9226 H       
  43 H43           -2.2500    -5.8345    -0.0052 H       
  44 H44           -2.5430    -2.0284    -1.9219 H       
  45 H45           -3.7824    -6.3286    -2.9897 H       
  46 H46           -2.3228    -6.4975    -1.9851 H       
  47 H47           -3.9056    -6.2276    -1.2169 H       
  48 H48           -1.0970    -3.5944     3.6387 H       
  49 H49            0.4851    -3.8653     2.8693 H       
  50 H50           -1.3714    -1.8943     5.3501 H       
  51 H51           -0.2840    -0.5733     7.1209 H       
  52 H52            2.1552    -0.2379     7.0848 H       
  53 H53            3.5069    -1.2241     5.2784 H       
  54 H54            2.4205    -2.5521     3.5122 H       
@<TRIPOS>BOND
   1    1    2 2
   2    1    6 1
   3    1    9 1
   4    2    3 1
   5    2    7 1
   6    3    4 2
   7    3   17 1
   8    4    5 1
   9    4   11 1
  10    5    6 am
  11    5   10 2
  12    6   34 1
  13    7    8 2
  14    7   18 1
  15    8    9 1
  16    8   35 1
  17   11   12 ar
  18   11   16 ar
  19   12   13 ar
  20   12   36 1
  21   13   14 ar
  22   13   37 1
  23   14   15 ar
  24   14   38 1
  25   15   16 ar
  26   15   39 1
  27   16   40 1
  28   17   41 1
  29   18   19 ar
  30   18   23 ar
  31   19   20 ar
  32   19   26 1
  33   20   21 ar
  34   20   42 1
  35   21   22 ar
  36   21   43 1
  37   22   23 ar
  38   22   24 1
  39   23   44 1
  40   24   25 1
  41   25   45 1
  42   25   46 1
  43   25   47 1
  44   26   27 1
  45   27   28 1
  46   27   48 1
  47   27   49 1
  48   28   29 ar
  49   28   33 ar
  50   29   30 ar
  51   29   50 1
  52   30   31 ar
  53   30   51 1
  54   31   32 ar
  55   31   52 1
  56   32   33 ar
  57   32   53 1
  58   33   54 1

#	End of record

