#	Name: ASD01881073
#	Creating user name:	WinNT
#	Creation time:	15. 06. 2019 19:41

#	Modifying user name:	WinNT
#	Modification time:	15. 06. 2019 19:41

#	Program:	/corina/corina34_cracker 3.40 0067  02.08.2006

@<TRIPOS>MOLECULE
ASD01881073
  41   43    0    0    0
SMALL
NO_CHARGES


@<TRIPOS>ATOM
   1 C1            -0.0169     1.3916     0.0097 C.ar    
   2 C2             0.0021    -0.0041     0.0020 C.ar    
   3 C3             1.2049    -0.6931    -0.0131 C.ar    
   4 C4             2.4005     0.0203    -0.0207 C.ar    
   5 C5             2.3727     1.4360    -0.0128 C.ar    
   6 C6             1.1473     2.1070     0.0024 C.ar    
   7 C7             3.7028    -0.6499    -0.0361 C.2     
   8 C8             4.8237     0.0887    -0.0424 C.2     
   9 N9             4.7997     1.4545    -0.0350 N.am    
  10 C10            3.6485     2.1547    -0.0207 C.2     
  11 C11            6.0704     2.1836    -0.0427 C.3     
  12 C12            6.4995     2.4451    -1.4878 C.3     
  13 C13            7.8265     3.2066    -1.4959 C.3     
  14 O14            3.6689     3.3728    -0.0152 O.2     
  15 Cl15           1.1039     3.8424     0.0121 Cl      
  16 N16           -1.1976    -0.7104     0.0101 N.pl3   
  17 C17           -2.4724     0.0113     0.0266 C.3     
  18 C18           -3.6095    -0.9777     0.0325 C.ar    
  19 C19           -4.1272    -1.4448     1.2307 C.ar    
  20 C20           -5.1737    -2.3537     1.1878 C.ar    
  21 C21           -5.6621    -2.7608    -0.0390 C.ar    
  22 N22           -5.1446    -2.2956    -1.1593 N.ar    
  23 C23           -4.1531    -1.4263    -1.1565 C.ar    
  24 H24           -0.9630     1.9123     0.0170 H       
  25 H25            1.2145    -1.7730    -0.0187 H       
  26 H26            3.7607    -1.7283    -0.0420 H       
  27 H27            5.7789    -0.4151    -0.0535 H       
  28 H28            5.9473     3.1336     0.4773 H       
  29 H29            6.8331     1.5898     0.4610 H       
  30 H30            6.6225     1.4951    -2.0079 H       
  31 H31            5.7367     3.0389    -1.9915 H       
  32 H32            7.7034     4.1566    -0.9759 H       
  33 H33            8.5892     2.6128    -0.9922 H       
  34 H34            8.1322     3.3929    -2.5255 H       
  35 H35           -1.1894    -1.6803     0.0048 H       
  36 H36           -2.5266     0.6326     0.9205 H       
  37 H37           -2.5443     0.6422    -0.8594 H       
  38 H38           -3.7249    -1.1091     2.1751 H       
  39 H39           -5.6013    -2.7388     2.1017 H       
  40 H40           -6.4770    -3.4684    -0.0810 H       
  41 H41           -3.7550    -1.0677    -2.0943 H       
@<TRIPOS>BOND
   1    1    2 ar
   2    1    6 ar
   3    1   24 1
   4    2    3 ar
   5    2   16 1
   6    3    4 ar
   7    3   25 1
   8    4    5 ar
   9    4    7 1
  10    5    6 ar
  11    5   10 1
  12    6   15 1
  13    7    8 2
  14    7   26 1
  15    8    9 1
  16    8   27 1
  17    9   10 am
  18    9   11 1
  19   10   14 2
  20   11   12 1
  21   11   28 1
  22   11   29 1
  23   12   13 1
  24   12   30 1
  25   12   31 1
  26   13   32 1
  27   13   33 1
  28   13   34 1
  29   16   17 1
  30   16   35 1
  31   17   18 1
  32   17   36 1
  33   17   37 1
  34   18   19 ar
  35   18   23 ar
  36   19   20 ar
  37   19   38 1
  38   20   21 ar
  39   20   39 1
  40   21   22 ar
  41   21   40 1
  42   22   23 ar
  43   23   41 1

#	End of record

