#	Name: ASD01910150
#	Creating user name:	WinNT
#	Creation time:	15. 06. 2019 19:55

#	Modifying user name:	WinNT
#	Modification time:	15. 06. 2019 19:55

#	Program:	/corina/corina34_cracker 3.40 0067  02.08.2006

@<TRIPOS>MOLECULE
ASD01910150
  28   29    0    0    0
SMALL
NO_CHARGES


@<TRIPOS>ATOM
   1 C1            -0.0167     1.3816     0.0096 C.ar    
   2 C2             0.0021    -0.0041     0.0020 C.ar    
   3 N3             1.1372    -0.6687    -0.0124 N.ar    
   4 C4             2.3112    -0.0451    -0.0203 C.ar    
   5 C5             2.3694     1.3581    -0.0133 C.ar    
   6 C6             1.1789     2.0803     0.0020 C.ar    
   7 C7            -1.3002    -0.7624     0.0109 C.3     
   8 N8             3.4656    -0.7721    -0.0347 N.2     
   9 N9             3.5955     2.0152    -0.0210 N.pl3   
  10 N10            3.4160    -2.0611    -0.0407 N.2     
  11 C11            4.5721    -2.7891    -0.0552 C.ar    
  12 C12            4.5224    -4.1861    -0.0618 C.ar    
  13 C13            5.6935    -4.9141    -0.0769 C.ar    
  14 C14            6.9158    -4.2650    -0.0851 C.ar    
  15 C15            6.9730    -2.8822    -0.0782 C.ar    
  16 C16            5.8104    -2.1406    -0.0694 C.ar    
  17 H17           -0.9570     1.9128     0.0170 H       
  18 H18            1.1878     3.1603     0.0073 H       
  19 H19           -1.6243    -0.9398    -1.0146 H       
  20 H20           -1.1612    -1.7171     0.5182 H       
  21 H21           -2.0568    -0.1790     0.5354 H       
  22 H22            4.4198     1.5040    -0.0313 H       
  23 H23            3.6262     2.9847    -0.0161 H       
  24 H24            3.5693    -4.6939    -0.0547 H       
  25 H25            5.6567    -5.9934    -0.0820 H       
  26 H26            7.8296    -4.8405    -0.0966 H       
  27 H27            7.9305    -2.3827    -0.0840 H       
  28 H28            5.8565    -1.0616    -0.0645 H       
@<TRIPOS>BOND
   1    1    2 ar
   2    1    6 ar
   3    1   17 1
   4    2    3 ar
   5    2    7 1
   6    3    4 ar
   7    4    5 ar
   8    4    8 1
   9    5    6 ar
  10    5    9 1
  11    6   18 1
  12    7   19 1
  13    7   20 1
  14    7   21 1
  15    8   10 2
  16    9   22 1
  17    9   23 1
  18   10   11 1
  19   11   12 ar
  20   11   16 ar
  21   12   13 ar
  22   12   24 1
  23   13   14 ar
  24   13   25 1
  25   14   15 ar
  26   14   26 1
  27   15   16 ar
  28   15   27 1
  29   16   28 1

#	End of record

