#	Name: ASD03731837
#	Creating user name:	WinNT
#	Creation time:	15. 06. 2019 20:46

#	Modifying user name:	WinNT
#	Modification time:	15. 06. 2019 20:46

#	Program:	/corina/corina34_cracker 3.40 0067  02.08.2006

@<TRIPOS>MOLECULE
ASD03731837
  33   34    0    0    0
SMALL
NO_CHARGES


@<TRIPOS>ATOM
   1 C1            -0.1573     1.4664     0.0376 C.2     
   2 C2            -0.1006    -0.0069     0.0223 C.ar    
   3 C3             1.1263    -0.6607    -0.1435 C.ar    
   4 C4             1.1736    -2.0401    -0.1572 C.ar    
   5 C5             0.0068    -2.7780    -0.0073 C.ar    
   6 C6            -1.2145    -2.1313     0.1577 C.ar    
   7 C7            -1.2709    -0.7553     0.1789 C.ar    
   8 O8             0.8626     2.1156    -0.0938 O.2     
   9 N9            -1.3402     2.0937     0.1918 N.am    
  10 S10           -1.4039     3.7484     0.2090 S.o2    
  11 O11           -2.7789     4.0441     0.4118 O.2     
  12 O12           -0.4243     4.1268     1.1663 O.2     
  13 C13           -0.8866     4.2387    -1.4591 C.3     
  14 F14            2.2614     0.0570    -0.2902 F       
  15 O15            0.0574    -4.1341    -0.0222 O.3     
  16 C16           -0.1542    -4.7676    -1.2058 C.ar    
  17 C17           -0.0491    -6.1502    -1.2835 C.ar    
  18 C18           -0.2654    -6.7914    -2.4886 C.ar    
  19 C19           -0.5861    -6.0572    -3.6158 C.ar    
  20 C20           -0.6912    -4.6808    -3.5406 C.ar    
  21 C21           -0.4812    -4.0349    -2.3372 C.ar    
  22 Cl22           0.3540    -7.0720     0.1312 Cl      
  23 Cl23          -2.6687    -3.0608     0.3444 Cl      
  24 H24            2.1192    -2.5461    -0.2849 H       
  25 H25           -2.2189    -0.2551     0.3115 H       
  26 H26           -2.1542     1.5759     0.2926 H       
  27 H27           -1.5718     3.8127    -2.1919 H       
  28 H28           -0.8993     5.3257    -1.5386 H       
  29 H29            0.1223     3.8723    -1.6490 H       
  30 H30           -0.1836    -7.8666    -2.5502 H       
  31 H31           -0.7544    -6.5600    -4.5567 H       
  32 H32           -0.9418    -4.1101    -4.4225 H       
  33 H33           -0.5680    -2.9600    -2.2785 H       
@<TRIPOS>BOND
   1    1    2 1
   2    1    8 2
   3    1    9 am
   4    2    3 ar
   5    2    7 ar
   6    3    4 ar
   7    3   14 1
   8    4    5 ar
   9    4   24 1
  10    5    6 ar
  11    5   15 1
  12    6    7 ar
  13    6   23 1
  14    7   25 1
  15    9   10 am
  16    9   26 1
  17   10   11 2
  18   10   12 2
  19   10   13 1
  20   13   27 1
  21   13   28 1
  22   13   29 1
  23   15   16 1
  24   16   17 ar
  25   16   21 ar
  26   17   18 ar
  27   17   22 1
  28   18   19 ar
  29   18   30 1
  30   19   20 ar
  31   19   31 1
  32   20   21 ar
  33   20   32 1
  34   21   33 1

#	End of record

