#	Name: ASD01911891
#	Creating user name:	WinNT
#	Creation time:	15. 06. 2019 19:58

#	Modifying user name:	WinNT
#	Modification time:	15. 06. 2019 19:58

#	Program:	/corina/corina34_cracker 3.40 0067  02.08.2006

@<TRIPOS>MOLECULE
ASD01911891
  36   38    0    0    0
SMALL
NO_CHARGES


@<TRIPOS>ATOM
   1 C1            -1.0581    -0.4837    -2.0443 C.ar    
   2 C2            -1.0628     0.0682    -0.7673 C.ar    
   3 C3            -1.0155     1.4479    -0.6287 C.ar    
   4 N4            -0.9666     2.2302    -1.6887 N.ar    
   5 C5            -0.9606     1.7416    -2.9132 C.ar    
   6 C6            -1.0059     0.3749    -3.1329 C.ar    
   7 O7            -1.1135    -0.7329     0.3292 O.3     
   8 C8            -1.1595    -2.0771     0.1356 C.ar    
   9 C9            -0.0053    -2.7698    -0.2031 C.ar    
  10 C10           -0.0507    -4.1377    -0.4005 C.ar    
  11 C11           -1.2458    -4.8192    -0.2610 C.ar    
  12 C12           -2.4033    -4.1305     0.0778 C.ar    
  13 C13           -2.3580    -2.7581     0.2818 C.ar    
  14 N14           -3.6120    -4.8196     0.2190 N.am    
  15 C15           -3.6155    -6.0872     0.6767 C.2     
  16 C16           -4.8799    -6.8512     0.7274 C.ar    
  17 O17           -2.5788    -6.6023     1.0479 O.2     
  18 C18           -4.8868    -8.1642     1.2009 C.ar    
  19 C19           -6.0702    -8.8724     1.2458 C.ar    
  20 C20           -7.2485    -8.2843     0.8229 C.ar    
  21 C21           -7.2492    -6.9821     0.3514 C.ar    
  22 C22           -6.0729    -6.2607     0.3072 C.ar    
  23 Cl23          -8.7330    -6.2532    -0.1782 Cl      
  24 F24           -0.9989    -0.1161    -4.3915 F       
  25 Cl25           1.3947    -5.0006    -0.8245 Cl      
  26 H26           -1.0898    -1.5540    -2.1848 H       
  27 H27           -1.0191     1.8859     0.3585 H       
  28 H28           -0.9202     2.4159    -3.7559 H       
  29 H29            0.9293    -2.2397    -0.3130 H       
  30 H30           -1.2792    -5.8876    -0.4159 H       
  31 H31           -3.2568    -2.2205     0.5453 H       
  32 H32           -4.4478    -4.3852    -0.0126 H       
  33 H33           -3.9676    -8.6250     1.5312 H       
  34 H34           -6.0763    -9.8885     1.6117 H       
  35 H35           -8.1719    -8.8432     0.8602 H       
  36 H36           -6.0742    -5.2451    -0.0602 H       
@<TRIPOS>BOND
   1    1    2 ar
   2    1    6 ar
   3    1   26 1
   4    2    3 ar
   5    2    7 1
   6    3    4 ar
   7    3   27 1
   8    4    5 ar
   9    5    6 ar
  10    5   28 1
  11    6   24 1
  12    7    8 1
  13    8    9 ar
  14    8   13 ar
  15    9   10 ar
  16    9   29 1
  17   10   11 ar
  18   10   25 1
  19   11   12 ar
  20   11   30 1
  21   12   13 ar
  22   12   14 1
  23   13   31 1
  24   14   15 am
  25   14   32 1
  26   15   16 1
  27   15   17 2
  28   16   18 ar
  29   16   22 ar
  30   18   19 ar
  31   18   33 1
  32   19   20 ar
  33   19   34 1
  34   20   21 ar
  35   20   35 1
  36   21   22 ar
  37   21   23 1
  38   22   36 1

#	End of record

