#	Name: ASD00311036
#	Creating user name:	WinNT
#	Creation time:	15. 06. 2019 18:34

#	Modifying user name:	WinNT
#	Modification time:	15. 06. 2019 18:34

#	Program:	/corina/corina34_cracker 3.40 0067  02.08.2006

@<TRIPOS>MOLECULE
ASD00311036
  37   39    0    0    0
SMALL
NO_CHARGES


@<TRIPOS>ATOM
   1 C1            -0.0158     1.3141     0.0093 C.ar    
   2 N2             0.0021    -0.0041     0.0020 N.ar    
   3 C3             1.1287    -0.6886    -0.0124 C.ar    
   4 C4             2.3501    -0.0441    -0.0206 C.ar    
   5 C5             2.3790     1.3544    -0.0133 C.ar    
   6 C6             1.1595     2.0395     0.0019 C.ar    
   7 C7             3.6717     3.5533    -0.0134 C.2     
   8 C8             3.6652     2.0895    -0.0212 C.2     
   9 C9             6.0808     6.3787    -0.0203 C.ar    
  10 C10            4.8504     5.6953    -0.0127 C.ar    
  11 C11            4.8439     4.2232    -0.0205 C.2     
  12 C12            6.0984     7.7411    -0.0132 C.ar    
  13 C13            4.8660     8.4256     0.0018 C.ar    
  14 C14            3.6600     7.6777     0.0093 C.ar    
  15 N15            3.7002     6.3474     0.0018 N.ar    
  16 O16            4.7160     1.4767    -0.0341 O.2     
  17 C17            2.4246     8.3679     0.0244 C.ar    
  18 C18            2.4183     9.7461     0.0314 C.ar    
  19 C19            3.6097    10.4644     0.0238 C.ar    
  20 C20            4.8145     9.8270     0.0102 C.ar    
  21 N21            1.2254     7.6605     0.0316 N.pl3   
  22 C22           -0.0500     8.3811     0.0472 C.3     
  23 H23           -0.9625     1.8339     0.0165 H       
  24 H24            1.0960    -1.7681    -0.0175 H       
  25 H25            3.2692    -0.6113    -0.0320 H       
  26 H26            1.1373     3.1192     0.0076 H       
  27 H27            2.7388     4.0974    -0.0019 H       
  28 H28            7.0080     5.8249    -0.0272 H       
  29 H29            5.7767     3.6792    -0.0320 H       
  30 H30            7.0327     8.2828    -0.0185 H       
  31 H31            1.4768    10.2751     0.0425 H       
  32 H32            3.5796    11.5440     0.0295 H       
  33 H33            5.7293    10.4011     0.0045 H       
  34 H34            1.2345     6.6905     0.0263 H       
  35 H35           -0.1054     9.0024     0.9411 H       
  36 H36           -0.1218     9.0119    -0.8388 H       
  37 H37           -0.8718     7.6650     0.0509 H       
@<TRIPOS>BOND
   1    1    2 ar
   2    1    6 ar
   3    1   23 1
   4    2    3 ar
   5    3    4 ar
   6    3   24 1
   7    4    5 ar
   8    4   25 1
   9    5    6 ar
  10    5    8 1
  11    6   26 1
  12    7    8 1
  13    7   11 2
  14    7   27 1
  15    8   16 2
  16    9   10 ar
  17    9   12 ar
  18    9   28 1
  19   10   11 1
  20   10   15 ar
  21   11   29 1
  22   12   13 ar
  23   12   30 1
  24   13   14 ar
  25   13   20 ar
  26   14   15 ar
  27   14   17 ar
  28   17   18 ar
  29   17   21 1
  30   18   19 ar
  31   18   31 1
  32   19   20 ar
  33   19   32 1
  34   20   33 1
  35   21   22 1
  36   21   34 1
  37   22   35 1
  38   22   36 1
  39   22   37 1

#	End of record

