#	Name: ASD02198316
#	Creating user name:	WinNT
#	Creation time:	15. 06. 2019 20:19

#	Modifying user name:	WinNT
#	Modification time:	15. 06. 2019 20:19

#	Program:	/corina/corina34_cracker 3.40 0067  02.08.2006

@<TRIPOS>MOLECULE
ASD02198316
  34   36    0    0    0
SMALL
NO_CHARGES


@<TRIPOS>ATOM
   1 C1             1.8293     1.1546    -2.7542 C.2     
   2 C2             1.3492    -0.1355    -2.8898 C.2     
   3 S3             2.2009     1.4111    -1.0513 S.3     
   4 C4             1.6969    -0.1797    -0.6844 C.2     
   5 N5             1.3000    -0.7993    -1.7588 N.2     
   6 N6             0.9568    -0.6754    -4.1039 N.pl3   
   7 C7             1.9965     2.0914    -3.7908 C.2     
   8 C8             1.8662     3.5386    -3.5085 C.ar    
   9 O9             2.2488     1.7110    -4.9215 O.2     
  10 N10            1.7084    -0.7317     0.5768 N.pl3   
  11 C11            1.3857    -2.0823     0.7526 C.ar    
  12 C12            2.3890    -3.0437     0.7511 C.ar    
  13 C13            2.1628     4.4751    -4.4995 C.ar    
  14 C14            1.4409     3.9718    -2.2522 C.ar    
  15 C15            1.3216     5.3221    -1.9954 C.ar    
  16 C16            1.6222     6.2459    -2.9806 C.ar    
  17 C17            2.0394     5.8225    -4.2301 C.ar    
  18 C18            2.0671    -4.3766     0.9254 C.ar    
  19 C19            0.7474    -4.7539     1.1012 C.ar    
  20 C20           -0.2539    -3.7988     1.1032 C.ar    
  21 C21            0.0620    -2.4638     0.9347 C.ar    
  22 Cl22          -1.1948    -1.2663     0.9378 Cl      
  23 Cl23           4.0448    -2.5714     0.5299 Cl      
  24 Cl24           0.3472    -6.4290     1.3193 Cl      
  25 H25            1.0122    -0.1422    -4.9123 H       
  26 H26            0.6266    -1.5865    -4.1456 H       
  27 H27            1.9402    -0.1847     1.3436 H       
  28 H28            2.4885     4.1459    -5.4751 H       
  29 H29            1.2053     3.2517    -1.4826 H       
  30 H30            0.9925     5.6588    -1.0234 H       
  31 H31            1.5265     7.3018    -2.7749 H       
  32 H32            2.2729     6.5485    -4.9948 H       
  33 H33            2.8464    -5.1244     0.9239 H       
  34 H34           -1.2830    -4.0965     1.2404 H       
@<TRIPOS>BOND
   1    1    2 2
   2    1    3 1
   3    1    7 1
   4    2    6 1
   5    2    5 1
   6    3    4 1
   7    4    5 2
   8    4   10 1
   9    6   25 1
  10    6   26 1
  11    7    8 1
  12    7    9 2
  13    8   13 ar
  14    8   14 ar
  15   10   11 1
  16   10   27 1
  17   11   12 ar
  18   11   21 ar
  19   12   18 ar
  20   12   23 1
  21   13   17 ar
  22   13   28 1
  23   14   15 ar
  24   14   29 1
  25   15   16 ar
  26   15   30 1
  27   16   17 ar
  28   16   31 1
  29   17   32 1
  30   18   19 ar
  31   18   33 1
  32   19   20 ar
  33   19   24 1
  34   20   21 ar
  35   20   34 1
  36   21   22 1

#	End of record

