#	Name: ASD01148185
#	Creating user name:	WinNT
#	Creation time:	15. 06. 2019 19:02

#	Modifying user name:	WinNT
#	Modification time:	15. 06. 2019 19:02

#	Program:	/corina/corina34_cracker 3.40 0067  02.08.2006

@<TRIPOS>MOLECULE
ASD01148185
  45   48    0    0    0
SMALL
NO_CHARGES


@<TRIPOS>ATOM
   1 C1            -0.0167     1.3777     0.0096 C.ar    
   2 C2             0.0021    -0.0041     0.0020 C.ar    
   3 C3             1.2098    -0.6793    -0.0131 C.ar    
   4 C4             2.3977     0.0294    -0.0206 C.ar    
   5 C5             2.3777     1.4116    -0.0130 C.ar    
   6 C6             1.1710     2.0855     0.0021 C.ar    
   7 C7             3.6718     2.1839    -0.0212 C.3     
   8 O8             4.6969     1.4658    -0.7375 O.3     
   9 C9             3.5417     3.4737    -0.8661 C.3     
  10 C10            4.0452     3.0289    -2.2262 C.2     
  11 N11            4.6710     1.9094    -2.0797 N.2     
  12 C12            3.8518     3.7517    -3.4986 C.ar    
  13 C13            4.3705     3.2276    -4.6855 C.ar    
  14 C14            3.1453     4.9570    -3.5171 C.ar    
  15 C15            2.9651     5.6309    -4.7037 C.ar    
  16 C16            3.4887     5.1098    -5.8896 C.ar    
  17 C17            4.1902     3.9017    -5.8720 C.ar    
  18 C18            3.2952     5.8332    -7.1632 C.2     
  19 O19            2.6806     6.8818    -7.1793 O.2     
  20 N20            3.8003     5.3305    -8.3072 N.am    
  21 C21            4.1233     2.5056     1.4048 C.3     
  22 F22            4.2988     1.3150     2.1182 F       
  23 F23            5.3328     3.2074     1.3639 F       
  24 F24            3.1510     3.2886     2.0363 F       
  25 Cl25           1.2342    -2.4151    -0.0221 Cl      
  26 C26            3.6185     6.0103    -9.5040 C.ar    
  27 N27            4.1214     5.5021   -10.6186 N.ar    
  28 N28            2.9417     7.1486    -9.5042 N.ar    
  29 C29            2.7504     7.8214   -10.6268 C.ar    
  30 C30            3.2680     7.3210   -11.8114 C.ar    
  31 C31            3.9664     6.1242   -11.7756 C.ar    
  32 H32           -0.9593     1.9048     0.0169 H       
  33 H33           -0.9257    -0.5569     0.0082 H       
  34 H34            3.3407    -0.4970    -0.0321 H       
  35 H35            1.1559     3.1654     0.0080 H       
  36 H36            2.5017     3.7948    -0.9245 H       
  37 H37            4.1705     4.2666    -0.4611 H       
  38 H38            4.9130     2.2939    -4.6719 H       
  39 H39            2.7403     5.3597    -2.6005 H       
  40 H40            2.4187     6.5624    -4.7181 H       
  41 H41            4.5949     3.4989    -6.7888 H       
  42 H42            4.2908     4.4938    -8.2943 H       
  43 H43            2.1973     8.7490   -10.6207 H       
  44 H44            3.1263     7.8496   -12.7424 H       
  45 H45            4.3828     5.7070   -12.6806 H       
@<TRIPOS>BOND
   1    1    2 ar
   2    1    6 ar
   3    1   32 1
   4    2    3 ar
   5    2   33 1
   6    3    4 ar
   7    3   25 1
   8    4    5 ar
   9    4   34 1
  10    5    6 ar
  11    5    7 1
  12    6   35 1
  13    7    8 1
  14    7    9 1
  15    7   21 1
  16    8   11 1
  17    9   10 1
  18    9   36 1
  19    9   37 1
  20   10   11 2
  21   10   12 1
  22   12   13 ar
  23   12   14 ar
  24   13   17 ar
  25   13   38 1
  26   14   15 ar
  27   14   39 1
  28   15   16 ar
  29   15   40 1
  30   16   17 ar
  31   16   18 1
  32   17   41 1
  33   18   19 2
  34   18   20 am
  35   20   26 1
  36   20   42 1
  37   21   22 1
  38   21   23 1
  39   21   24 1
  40   26   27 ar
  41   26   28 ar
  42   27   31 ar
  43   28   29 ar
  44   29   30 ar
  45   29   43 1
  46   30   31 ar
  47   30   44 1
  48   31   45 1

#	End of record

