#	Name: ASD00740029
#	Creating user name:	WinNT
#	Creation time:	15. 06. 2019 18:37

#	Modifying user name:	WinNT
#	Modification time:	15. 06. 2019 18:37

#	Program:	/corina/corina34_cracker 3.40 0067  02.08.2006

@<TRIPOS>MOLECULE
ASD00740029
  92   97    0    0    0
SMALL
NO_CHARGES


@<TRIPOS>ATOM
   1 C1            -0.5955   -16.2928    -6.1193 C.3     
   2 C2           -15.5872    -4.5365    -2.7168 C.3     
   3 C3           -15.0407    -3.5688    -0.4792 C.3     
   4 C4           -17.4236    -3.7840    -1.1989 C.3     
   5 C5           -18.2072   -11.0587     0.8350 C.ar    
   6 C6           -19.4318   -10.7351     1.3861 C.ar    
   7 C7           -17.3426   -10.0595     0.4305 C.ar    
   8 C8           -10.5597    -8.4336     1.3331 C.ar    
   9 C9           -10.4735   -10.8072     0.9538 C.ar    
  10 C10           -9.1822    -8.3725     1.2649 C.ar    
  11 C11           -9.0960   -10.7465     0.8856 C.ar    
  12 C12           -2.2198    -7.9885     1.3967 C.ar    
  13 C13           -2.9263    -7.2482     2.2950 C.ar    
  14 C14          -18.9314    -8.3973     1.1299 C.ar    
  15 C15          -14.9974    -6.5742    -0.2570 C.2     
  16 C16           -4.2164    -9.1384     0.6799 C.ar    
  17 C17           -1.6885   -11.7353    -1.6418 C.3     
  18 C18           -2.2436   -13.1590    -1.7185 C.3     
  19 C19           -1.0364   -16.0947    -3.7463 C.3     
  20 C20           -0.9769   -14.1132    -5.1350 C.3     
  21 C21           -1.8621   -15.3386    -2.7028 C.3     
  22 C22           -1.8027   -13.3571    -4.0915 C.3     
  23 N23          -21.0366    -9.0760     2.0917 N.pl3   
  24 O24           -3.3065   -11.5033     0.0606 O.2     
  25 O25          -12.8109    -7.6955     0.3406 O.2     
  26 C26           -2.4246   -10.9659    -0.5755 C.2     
  27 C27          -13.3518    -8.6994     0.7627 C.2     
  28 C28          -19.7978    -9.4027     1.5353 C.ar    
  29 C29          -11.2093    -9.6510     1.1777 C.ar    
  30 C30           -8.4461    -9.5288     1.0409 C.ar    
  31 C31           -2.8550    -8.9343     0.5863 C.ar    
  32 C32          -17.7023    -8.7261     0.5769 C.ar    
  33 C33          -16.0974    -5.8057    -0.6485 C.2     
  34 C34          -15.4661    -7.7497     0.2443 C.2     
  35 C35          -16.0374    -4.4290    -1.2585 C.3     
  36 N36          -17.1880    -6.4837    -0.3966 N.2     
  37 N37           -2.1031    -9.6805    -0.3286 N.am    
  38 N38          -12.6074    -9.7130     1.2474 N.am    
  39 N39          -14.6958    -8.7985     0.7459 N.am    
  40 N40           -7.0495    -9.4670     0.9713 N.pl3   
  41 N41           -1.3131   -15.5427    -5.0798 N.3     
  42 N42           -1.5260   -13.9091    -2.7580 N.3     
  43 N43          -16.8244    -7.7136     0.1666 N.pl3   
  44 N44           -6.9906    -7.7991     2.6320 N.ar    
  45 C45           -6.3407    -6.9174     3.3748 C.ar    
  46 N46           -5.0463    -6.7243     3.2854 N.ar    
  47 C47           -4.3109    -7.4318     2.4143 C.ar    
  48 C48           -4.9606    -8.3884     1.5963 C.ar    
  49 C49           -6.3604    -8.5511     1.7393 C.ar    
  50 H50           -0.9131   -17.3353    -6.0998 H       
  51 H51           -0.8179   -15.8634    -7.0961 H       
  52 H52            0.4770   -16.2362    -5.9332 H       
  53 H53          -14.5998    -4.9961    -2.7593 H       
  54 H54          -16.2974    -5.1494    -3.2720 H       
  55 H55          -15.5439    -3.5408    -3.1581 H       
  56 H56          -14.9973    -2.5730    -0.9204 H       
  57 H57          -15.3614    -3.4922     0.5598 H       
  58 H58          -14.0532    -4.0283    -0.5216 H       
  59 H59          -18.1337    -4.3968    -1.7541 H       
  60 H60          -17.7443    -3.7074    -0.1600 H       
  61 H61          -17.3802    -2.7882    -1.6402 H       
  62 H62          -17.9232   -12.0947     0.7238 H       
  63 H63          -20.1054   -11.5182     1.7013 H       
  64 H64          -16.3857   -10.3159     0.0003 H       
  65 H65          -11.1318    -7.5352     1.5116 H       
  66 H66          -10.9788   -11.7540     0.8330 H       
  67 H67           -8.6770    -7.4255     1.3854 H       
  68 H68           -8.5237   -11.6458     0.7118 H       
  69 H69           -1.1540    -7.8397     1.3057 H       
  70 H70           -2.4211    -6.5217     2.9143 H       
  71 H71          -19.2135    -7.3611     1.2444 H       
  72 H72          -13.9595    -6.2880    -0.3415 H       
  73 H73           -4.7025    -9.8705     0.0520 H       
  74 H74           -0.6272   -11.7719    -1.3962 H       
  75 H75           -1.8219   -11.2410    -2.6041 H       
  76 H76           -2.1102   -13.6533    -0.7563 H       
  77 H77           -3.3049   -13.1224    -1.9641 H       
  78 H78            0.0242   -15.9848    -3.5200 H       
  79 H79           -1.3051   -17.1509    -3.7270 H       
  80 H80           -1.2023   -13.7247    -6.1282 H       
  81 H81            0.0843   -13.9808    -4.9246 H       
  82 H82           -2.9234   -15.4710    -2.9132 H       
  83 H83           -1.6368   -15.7271    -1.7096 H       
  84 H84           -1.5339   -12.3009    -4.1108 H       
  85 H85           -2.8632   -13.4670    -4.3178 H       
  86 H86          -21.6420    -9.7792     2.3743 H       
  87 H87          -21.2914    -8.1458     2.1956 H       
  88 H88           -1.3506    -9.2726    -0.7850 H       
  89 H89          -13.0395   -10.4853     1.6446 H       
  90 H90          -15.1274    -9.5993     1.0826 H       
  91 H91           -6.5661   -10.0681     0.3832 H       
  92 H92           -6.9016    -6.3303     4.0869 H       
@<TRIPOS>BOND
   1    1   41 1
   2    1   50 1
   3    1   51 1
   4    1   52 1
   5    2   35 1
   6    2   53 1
   7    2   54 1
   8    2   55 1
   9    3   35 1
  10    3   56 1
  11    3   57 1
  12    3   58 1
  13    4   35 1
  14    4   59 1
  15    4   60 1
  16    4   61 1
  17    5    6 ar
  18    5    7 ar
  19    5   62 1
  20    6   28 ar
  21    6   63 1
  22    7   32 ar
  23    7   64 1
  24    8   10 ar
  25    8   29 ar
  26    8   65 1
  27    9   11 ar
  28    9   29 ar
  29    9   66 1
  30   10   30 ar
  31   10   67 1
  32   11   30 ar
  33   11   68 1
  34   12   13 ar
  35   12   31 ar
  36   12   69 1
  37   13   47 ar
  38   13   70 1
  39   14   28 ar
  40   14   32 ar
  41   14   71 1
  42   15   33 1
  43   15   34 2
  44   15   72 1
  45   16   31 ar
  46   16   48 ar
  47   16   73 1
  48   17   18 1
  49   17   26 1
  50   17   74 1
  51   17   75 1
  52   18   42 1
  53   18   76 1
  54   18   77 1
  55   19   21 1
  56   19   41 1
  57   19   78 1
  58   19   79 1
  59   20   22 1
  60   20   41 1
  61   20   80 1
  62   20   81 1
  63   21   42 1
  64   21   82 1
  65   21   83 1
  66   22   42 1
  67   22   84 1
  68   22   85 1
  69   23   28 1
  70   23   86 1
  71   23   87 1
  72   24   26 2
  73   25   27 2
  74   26   37 am
  75   27   38 am
  76   27   39 am
  77   29   38 1
  78   30   40 1
  79   31   37 1
  80   32   43 1
  81   33   35 1
  82   33   36 2
  83   34   39 1
  84   34   43 1
  85   36   43 1
  86   37   88 1
  87   38   89 1
  88   39   90 1
  89   40   49 1
  90   40   91 1
  91   44   45 ar
  92   44   49 ar
  93   45   46 ar
  94   45   92 1
  95   46   47 ar
  96   47   48 ar
  97   48   49 ar

#	End of record

