#	Name: ASD01190209
#	Creating user name:	WinNT
#	Creation time:	15. 06. 2019 19:08

#	Modifying user name:	WinNT
#	Modification time:	15. 06. 2019 19:08

#	Program:	/corina/corina34_cracker 3.40 0067  02.08.2006

@<TRIPOS>MOLECULE
ASD01190209
  69   74    0    0    0
SMALL
NO_CHARGES


@<TRIPOS>ATOM
   1 C1             1.9645     0.0511     1.7551 C.3     
   2 C2             1.5333    -1.3302     1.2582 C.3     
   3 C3             0.0429    -1.5311     1.5397 C.3     
   4 O4             3.3777     0.1938     1.5987 O.3     
   5 O5             1.7696    -1.4258    -0.1478 O.3     
   6 N6            -0.3436    -2.8959     1.1737 N.pl3   
   7 C7            -0.8847    -3.2650    -0.0297 C.2     
   8 C8            -1.1216    -4.5856    -0.0385 C.2     
   9 C9            -0.6983    -5.1060     1.2647 C.ar    
  10 C10           -0.6933    -6.3763     1.8453 C.ar    
  11 C11           -0.2203    -6.5416     3.1153 C.ar    
  12 C12            0.2587    -5.4500     3.8387 C.ar    
  13 C13            0.2617    -4.1839     3.2802 C.ar    
  14 C14           -0.2118    -4.0003     1.9855 C.ar    
  15 C15           -1.7112    -5.3829    -1.1733 C.3     
  16 C16           -2.0394    -4.4464    -2.3379 C.3     
  17 O17           -0.7688    -6.3668    -1.6043 O.3     
  18 N18           -6.3181    -8.1551     0.4700 N.pl3   
  19 N19           -5.9750    -9.4325     0.0150 N.2     
  20 C20           -4.8034    -9.4052    -0.5545 C.2     
  21 C21           -4.3075    -8.0340    -0.4907 C.ar    
  22 C22           -3.1367    -7.4020    -0.9242 C.ar    
  23 C23           -2.9714    -6.0648    -0.7065 C.ar    
  24 C24           -3.9539    -5.3263    -0.0583 C.ar    
  25 C25           -5.1052    -5.9212     0.3745 C.ar    
  26 C26           -5.3020    -7.2835     0.1662 C.ar    
  27 C27           -7.5097    -7.8181     1.1251 C.ar    
  28 C28           -8.6967    -8.4496     0.7776 C.ar    
  29 C29           -9.8703    -8.1159     1.4245 C.ar    
  30 C30           -9.8640    -7.1523     2.4192 C.ar    
  31 C31           -8.6813    -6.5214     2.7672 C.ar    
  32 C32           -7.5046    -6.8563     2.1267 C.ar    
  33 F33          -11.0132    -6.8270     3.0505 F       
  34 F34           -0.8696    -3.8133    -2.7712 F       
  35 F35           -2.5868    -5.1865    -3.3914 F       
  36 F36           -2.9621    -3.4831    -1.9159 F       
  37 N37            0.7392    -5.6361     5.1383 N.3     
  38 C38            0.4176    -4.4774     5.9915 C.3     
  39 C39           -0.3830    -5.0074     7.1996 C.3     
  40 C40            0.0185    -6.5049     7.2551 C.3     
  41 C41            0.1549    -6.8482     5.7508 C.3     
  42 H42            1.4552     0.8211     1.1755 H       
  43 H43            1.7030     0.1565     2.8080 H       
  44 H44            2.1076    -2.0982     1.7762 H       
  45 H45           -0.1515    -1.3704     2.6002 H       
  46 H46           -0.5370    -0.8193     0.9522 H       
  47 H47            3.7219     1.0478     1.8942 H       
  48 H48            1.2893    -0.7709    -0.6728 H       
  49 H49           -1.0900    -2.5927    -0.8496 H       
  50 H50           -1.0632    -7.2261     1.2908 H       
  51 H51           -0.2175    -7.5245     3.5628 H       
  52 H52            0.6338    -3.3425     3.8459 H       
  53 H53           -0.5144    -6.9960    -0.9155 H       
  54 H54           -4.2904   -10.2473    -0.9950 H       
  55 H55           -2.3681    -7.9692    -1.4280 H       
  56 H56           -3.8054    -4.2692     0.1058 H       
  57 H57           -5.8608    -5.3359     0.8773 H       
  58 H58           -8.7022    -9.2008     0.0017 H       
  59 H59          -10.7937    -8.6065     1.1544 H       
  60 H60           -8.6786    -5.7700     3.5429 H       
  61 H61           -6.5816    -6.3675     2.4017 H       
  62 H62            1.3370    -4.0033     6.3351 H       
  63 H63           -0.1849    -3.7613     5.4327 H       
  64 H64           -0.0853    -4.4944     8.1142 H       
  65 H65           -1.4542    -4.9016     7.0284 H       
  66 H66            0.9686    -6.6355     7.7731 H       
  67 H67           -0.7645    -7.1020     7.7225 H       
  68 H68           -0.8238    -7.0574     5.3190 H       
  69 H69            0.8206    -7.7006     5.6149 H       
@<TRIPOS>BOND
   1    1    2 1
   2    1    4 1
   3    1   42 1
   4    1   43 1
   5    2    3 1
   6    2    5 1
   7    2   44 1
   8    3    6 1
   9    3   45 1
  10    3   46 1
  11    4   47 1
  12    5   48 1
  13    6    7 1
  14    6   14 1
  15    7    8 2
  16    7   49 1
  17    8    9 1
  18    8   15 1
  19    9   10 ar
  20    9   14 ar
  21   10   11 ar
  22   10   50 1
  23   11   12 ar
  24   11   51 1
  25   12   13 ar
  26   12   37 1
  27   13   14 ar
  28   13   52 1
  29   15   16 1
  30   15   17 1
  31   15   23 1
  32   16   34 1
  33   16   35 1
  34   16   36 1
  35   17   53 1
  36   18   19 1
  37   18   26 1
  38   18   27 1
  39   19   20 2
  40   20   21 1
  41   20   54 1
  42   21   22 ar
  43   21   26 ar
  44   22   23 ar
  45   22   55 1
  46   23   24 ar
  47   24   25 ar
  48   24   56 1
  49   25   26 ar
  50   25   57 1
  51   27   28 ar
  52   27   32 ar
  53   28   29 ar
  54   28   58 1
  55   29   30 ar
  56   29   59 1
  57   30   31 ar
  58   30   33 1
  59   31   32 ar
  60   31   60 1
  61   32   61 1
  62   37   38 1
  63   37   41 1
  64   38   39 1
  65   38   62 1
  66   38   63 1
  67   39   40 1
  68   39   64 1
  69   39   65 1
  70   40   41 1
  71   40   66 1
  72   40   67 1
  73   41   68 1
  74   41   69 1

#	End of record

