#	Name: ASD01180164
#	Creating user name:	WinNT
#	Creation time:	15. 06. 2019 19:06

#	Modifying user name:	WinNT
#	Modification time:	15. 06. 2019 19:06

#	Program:	/corina/corina34_cracker 3.40 0067  02.08.2006

@<TRIPOS>MOLECULE
ASD01180164
  40   40    0    0    0
SMALL
NO_CHARGES


@<TRIPOS>ATOM
   1 C1            -0.0180     1.4730     0.0101 C.2     
   2 C2             0.0021    -0.0041     0.0020 C.ar    
   3 C3             1.2188    -0.6888    -0.0133 C.ar    
   4 C4             1.2303    -2.0682    -0.0203 C.ar    
   5 C5             0.0396    -2.7731    -0.0127 C.ar    
   6 C6            -1.1697    -2.1009     0.0020 C.ar    
   7 C7            -1.1956    -0.7217     0.0154 C.ar    
   8 O8             1.0256     2.0946     0.0035 O.2     
   9 O9            -1.1936     2.1307     0.0193 O.3     
  10 C10            0.0601    -4.2800    -0.0210 C.3     
  11 C11           -0.1699    -4.8009     1.3991 C.3     
  12 C12           -0.0255    -6.3241     1.4132 C.3     
  13 C13           -0.2555    -6.8450     2.8333 C.3     
  14 O14           -0.9737    -4.7657    -0.8798 O.3     
  15 S15           -0.5087    -5.0722    -2.2962 S.o2    
  16 O16           -1.7122    -5.2764    -3.0236 O.2     
  17 O17            0.3683    -4.0011    -2.6167 O.2     
  18 C18            0.4141    -6.6265    -2.1432 C.3     
  19 F19           -1.5423    -6.4946     3.2559 F       
  20 F20           -0.1235    -8.2377     2.8462 F       
  21 F21            0.6890    -6.2790     3.6963 F       
  22 C22           -1.1373     3.5816     0.0269 C.3     
  23 C23           -2.5589     4.1471     0.0367 C.3     
  24 H24            2.1488    -0.1398    -0.0199 H       
  25 H25            2.1707    -2.5992    -0.0321 H       
  26 H26           -2.0953    -2.6572     0.0071 H       
  27 H27           -2.1401    -0.1983     0.0318 H       
  28 H28            1.0272    -4.6283    -0.3836 H       
  29 H29            0.5660    -4.3600     2.0715 H       
  30 H30           -1.1725    -4.5280     1.7284 H       
  31 H31           -0.7614    -6.7650     0.7408 H       
  32 H32            0.9771    -6.5970     1.0840 H       
  33 H33           -0.2442    -7.4031    -1.7540 H       
  34 H34            0.7885    -6.9246    -3.1226 H       
  35 H35            1.2526    -6.4855    -1.4612 H       
  36 H36           -0.6055     3.9199     0.9162 H       
  37 H37           -0.6140     3.9295    -0.8637 H       
  38 H38           -2.5166     5.2362     0.0424 H       
  39 H39           -3.0907     3.8088    -0.8526 H       
  40 H40           -3.0822     3.7991     0.9273 H       
@<TRIPOS>BOND
   1    1    2 1
   2    1    8 2
   3    1    9 1
   4    2    3 ar
   5    2    7 ar
   6    3    4 ar
   7    3   24 1
   8    4    5 ar
   9    4   25 1
  10    5    6 ar
  11    5   10 1
  12    6    7 ar
  13    6   26 1
  14    7   27 1
  15    9   22 1
  16   10   11 1
  17   10   14 1
  18   10   28 1
  19   11   12 1
  20   11   29 1
  21   11   30 1
  22   12   13 1
  23   12   31 1
  24   12   32 1
  25   13   19 1
  26   13   20 1
  27   13   21 1
  28   14   15 1
  29   15   16 2
  30   15   17 2
  31   15   18 1
  32   18   33 1
  33   18   34 1
  34   18   35 1
  35   22   23 1
  36   22   36 1
  37   22   37 1
  38   23   38 1
  39   23   39 1
  40   23   40 1

#	End of record

