#	Name: ASD03730337
#	Creating user name:	WinNT
#	Creation time:	15. 06. 2019 20:44

#	Modifying user name:	WinNT
#	Modification time:	15. 06. 2019 20:44

#	Program:	/corina/corina34_cracker 3.40 0067  02.08.2006

@<TRIPOS>MOLECULE
ASD03730337
  58   63    0    0    0
SMALL
NO_CHARGES


@<TRIPOS>ATOM
   1 C1             1.8800    -0.8975    -2.1085 C.2     
   2 C2             0.9779    -1.1345    -0.9614 C.ar    
   3 C3             1.3705    -0.7668     0.3268 C.ar    
   4 C4             0.5239    -0.9902     1.3926 C.ar    
   5 C5            -0.7119    -1.5779     1.1872 C.ar    
   6 C6            -1.1070    -1.9447    -0.0868 C.ar    
   7 C7            -0.2721    -1.7215    -1.1624 C.ar    
   8 O8             2.9225    -0.2935    -1.9472 O.2     
   9 N9             1.5492    -1.3559    -3.3319 N.am    
  10 C10            2.7164    -0.1276     0.5526 C.3     
  11 O11            0.0519    -2.8277     6.6600 O.3     
  12 C12           -0.0582    -2.8757     8.0948 C.3     
  13 O13            1.2878    -2.6422     8.5493 O.3     
  14 C14            1.8836    -1.9059     7.5656 C.ar    
  15 C15            1.1237    -2.0212     6.4038 C.ar    
  16 C16            3.0310    -1.1332     7.5677 C.ar    
  17 C17            3.4356    -0.4685     6.4140 C.ar    
  18 C18            2.6728    -0.5980     5.2573 C.ar    
  19 C19            1.5250    -1.3628     5.2536 C.ar    
  20 O20            4.5097     0.3465     6.2087 O.3     
  21 C21            3.3721     0.2014     4.1906 C.3     
  22 C22            4.7602     0.4552     4.7941 C.3     
  23 N23            2.8533     0.2368     1.9649 N.am    
  24 C24            3.4552    -0.5401     2.8875 C.2     
  25 C25            2.6566     1.4813     3.8751 C.ar    
  26 C26            2.2776     2.5701     4.6283 C.ar    
  27 C27            1.6128     3.6271     4.0327 C.ar    
  28 C28            1.3293     3.5873     2.6796 C.ar    
  29 C29            1.7059     2.4985     1.9211 C.ar    
  30 C30            2.3759     1.4301     2.5122 C.ar    
  31 O31            3.9644    -1.6250     2.7015 O.2     
  32 C32            2.3931    -1.0378    -4.4863 C.3     
  33 C33            2.1488    -2.0636    -5.5949 C.3     
  34 C34            2.0474     0.3611    -5.0007 C.3     
  35 H35            0.8264    -0.7062     2.3898 H       
  36 H36           -1.3708    -1.7513     2.0252 H       
  37 H37           -2.0729    -2.4029    -0.2405 H       
  38 H38           -0.5834    -2.0045    -2.1571 H       
  39 H39            0.7522    -1.8966    -3.4481 H       
  40 H40            3.5031    -0.8315     0.2811 H       
  41 H41            2.8014     0.7676    -0.0635 H       
  42 H42           -0.7252    -2.0921     8.4541 H       
  43 H43           -0.4074    -3.8559     8.4194 H       
  44 H44            3.6167    -1.0451     8.4708 H       
  45 H45            0.9378    -1.4485     4.3512 H       
  46 H46            5.1164     1.4534     4.5396 H       
  47 H47            5.4695    -0.3052     4.4671 H       
  48 H48            2.4999     2.5990     5.6848 H       
  49 H49            1.3163     4.4816     4.6229 H       
  50 H50            0.8102     4.4124     2.2147 H       
  51 H51            1.4805     2.4745     0.8652 H       
  52 H52            3.4414    -1.0668    -4.1891 H       
  53 H53            1.1005    -2.0346    -5.8922 H       
  54 H54            2.7768    -1.8268    -6.4538 H       
  55 H55            2.3951    -3.0602    -5.2284 H       
  56 H56            1.0251     0.3669    -5.3787 H       
  57 H57            2.1379     1.0802    -4.1866 H       
  58 H58            2.7330     0.6328    -5.8034 H       
@<TRIPOS>BOND
   1    1    2 1
   2    1    8 2
   3    1    9 am
   4    2    3 ar
   5    2    7 ar
   6    3    4 ar
   7    3   10 1
   8    4    5 ar
   9    4   35 1
  10    5    6 ar
  11    5   36 1
  12    6    7 ar
  13    6   37 1
  14    7   38 1
  15    9   32 1
  16    9   39 1
  17   10   23 1
  18   10   40 1
  19   10   41 1
  20   11   12 1
  21   11   15 1
  22   12   13 1
  23   12   42 1
  24   12   43 1
  25   13   14 1
  26   14   15 ar
  27   14   16 ar
  28   15   19 ar
  29   16   17 ar
  30   16   44 1
  31   17   18 ar
  32   17   20 1
  33   18   19 ar
  34   18   21 1
  35   19   45 1
  36   20   22 1
  37   21   22 1
  38   21   24 1
  39   21   25 1
  40   22   46 1
  41   22   47 1
  42   23   24 am
  43   23   30 1
  44   24   31 2
  45   25   26 ar
  46   25   30 ar
  47   26   27 ar
  48   26   48 1
  49   27   28 ar
  50   27   49 1
  51   28   29 ar
  52   28   50 1
  53   29   30 ar
  54   29   51 1
  55   32   33 1
  56   32   34 1
  57   32   52 1
  58   33   53 1
  59   33   54 1
  60   33   55 1
  61   34   56 1
  62   34   57 1
  63   34   58 1

#	End of record

