#	Name: ASD04910495
#	Creating user name:	WinNT
#	Creation time:	15. 06. 2019 20:56

#	Modifying user name:	WinNT
#	Modification time:	15. 06. 2019 20:56

#	Program:	/corina/corina34_cracker 3.40 0067  02.08.2006

@<TRIPOS>MOLECULE
ASD04910495
  58   61    0    0    0
SMALL
NO_CHARGES


@<TRIPOS>ATOM
   1 C1            -0.1471     1.3004    -0.4538 C.ar    
   2 C2            -0.0909    -0.0671    -0.2819 C.ar    
   3 C3             1.1328    -0.7099    -0.2183 C.ar    
   4 C4             2.3076     0.0131    -0.3268 C.ar    
   5 C5             2.2659     1.3810    -0.4994 C.ar    
   6 C6             1.0345     2.0361    -0.5641 C.ar    
   7 C7             0.9821     3.5008    -0.7493 C.2     
   8 O8            -0.2076     4.1297    -0.8113 O.3     
   9 O9             2.0117     4.1380    -0.8457 O.2     
  10 C10           -0.1831     5.5699    -0.9945 C.3     
  11 C11           -1.6167     6.1025    -1.0406 C.3     
  12 C12            1.1863    -2.2040    -0.0293 C.3     
  13 C13            1.4341    -2.8802    -1.3792 C.3     
  14 N14            2.2738    -2.5410     0.8926 N.pl3   
  15 C15            1.5397    -4.4041    -1.1939 C.3     
  16 C16            2.0484    -2.5326     2.2727 C.ar    
  17 C17            3.0362    -2.9721     3.1518 C.ar    
  18 C18            2.7691    -2.9454     4.5092 C.ar    
  19 C19            1.5341    -2.4848     4.9477 C.ar    
  20 N20            0.6190    -2.0747     4.0847 N.ar    
  21 C21            0.8397    -2.0807     2.7850 C.ar    
  22 N22            1.2545    -2.4544     6.3187 N.pl3   
  23 C23            0.0964    -2.0317     6.8905 C.2     
  24 C24            0.2301    -2.1629     8.2311 C.2     
  25 C25            1.5051    -2.6802     8.4891 C.2     
  26 N26            2.1162    -2.8601     7.3460 N.2     
  27 Cl27          -0.9681    -1.7601     9.4209 Cl      
  28 C28            0.2381    -2.6328    -2.3217 C.3     
  29 C29            0.0917    -3.9602    -3.1063 C.3     
  30 C30            0.4042    -5.0295    -2.0302 C.3     
  31 C31            2.0747    -2.9836     9.8509 C.3     
  32 H32           -1.1029     1.8003    -0.5075 H       
  33 H33           -1.0041    -0.6374    -0.1965 H       
  34 H34            3.2594    -0.4948    -0.2759 H       
  35 H35            3.1836     1.9442    -0.5836 H       
  36 H36            0.3500     6.0328    -0.1641 H       
  37 H37            0.3234     5.8086    -1.9297 H       
  38 H38           -2.1498     5.6396    -1.8710 H       
  39 H39           -2.1232     5.8638    -0.1055 H       
  40 H40           -1.5983     7.1837    -1.1782 H       
  41 H41            0.2393    -2.5522     0.3831 H       
  42 H42            2.3496    -2.4942    -1.8274 H       
  43 H43            3.1503    -2.7700     0.5457 H       
  44 H44            2.5062    -4.7578    -1.5529 H       
  45 H45            1.4145    -4.6619    -0.1423 H       
  46 H46            3.9875    -3.3256     2.7824 H       
  47 H47            3.5115    -3.2790     5.2191 H       
  48 H48            0.0686    -1.7385     2.1107 H       
  49 H49           -0.7730    -1.6583     6.3697 H       
  50 H50           -0.6649    -2.4281    -1.7464 H       
  51 H51            0.4528    -1.8090    -3.0024 H       
  52 H52           -0.9246    -4.0764    -3.4826 H       
  53 H53            0.8144    -4.0091    -3.9208 H       
  54 H54            0.7402    -5.9548    -2.4981 H       
  55 H55           -0.4719    -5.2119    -1.4079 H       
  56 H56            1.8358    -4.0114    10.1239 H       
  57 H57            3.1569    -2.8556     9.8288 H       
  58 H58            1.6433    -2.3030    10.5850 H       
@<TRIPOS>BOND
   1    1    2 ar
   2    1    6 ar
   3    1   32 1
   4    2    3 ar
   5    2   33 1
   6    3    4 ar
   7    3   12 1
   8    4    5 ar
   9    4   34 1
  10    5    6 ar
  11    5   35 1
  12    6    7 1
  13    7    8 1
  14    7    9 2
  15    8   10 1
  16   10   11 1
  17   10   36 1
  18   10   37 1
  19   11   38 1
  20   11   39 1
  21   11   40 1
  22   12   13 1
  23   12   14 1
  24   12   41 1
  25   13   15 1
  26   13   28 1
  27   13   42 1
  28   14   16 1
  29   14   43 1
  30   15   30 1
  31   15   44 1
  32   15   45 1
  33   16   17 ar
  34   16   21 ar
  35   17   18 ar
  36   17   46 1
  37   18   19 ar
  38   18   47 1
  39   19   20 ar
  40   19   22 1
  41   20   21 ar
  42   21   48 1
  43   22   23 1
  44   22   26 1
  45   23   24 2
  46   23   49 1
  47   24   25 1
  48   24   27 1
  49   25   26 2
  50   25   31 1
  51   28   29 1
  52   28   50 1
  53   28   51 1
  54   29   30 1
  55   29   52 1
  56   29   53 1
  57   30   54 1
  58   30   55 1
  59   31   56 1
  60   31   57 1
  61   31   58 1

#	End of record

