#	Name: ASD01814058
#	Creating user name:	WinNT
#	Creation time:	15. 06. 2019 19:31

#	Modifying user name:	WinNT
#	Modification time:	15. 06. 2019 19:31

#	Program:	/corina/corina34_cracker 3.40 0067  02.08.2006

@<TRIPOS>MOLECULE
ASD01814058
  40   43    0    0    0
SMALL
NO_CHARGES


@<TRIPOS>ATOM
   1 C1             7.3399     1.2111    -0.2191 C.ar    
   2 C2             7.2565    -0.1729    -0.2201 C.ar    
   3 C3             6.0316    -0.8058    -0.1601 C.ar    
   4 C4             4.8606    -0.0528    -0.0970 C.ar    
   5 C5             4.9467     1.3499    -0.0955 C.ar    
   6 C6             6.1934     1.9775    -0.1572 C.ar    
   7 N7             3.6308    -0.6740    -0.0371 N.pl3   
   8 C8             2.4779     0.0043     0.0243 C.2     
   9 C9             2.4359     1.3839     0.0318 C.2     
  10 C10            3.7010     2.1343    -0.0284 C.2     
  11 F11            6.2765     3.3259    -0.1554 F       
  12 O12            3.7174     3.3529    -0.0242 O.2     
  13 C13            1.1499     2.0918     0.0987 C.2     
  14 O14            1.1219     3.4396     0.1053 O.3     
  15 O15            0.1112     1.4621     0.1481 O.2     
  16 C16            3.5837    -2.1382    -0.0413 C.3     
  17 C17            3.4395    -2.6321    -1.4578 C.ar    
  18 C18            4.5597    -2.7763    -2.2556 C.ar    
  19 C19            4.4308    -3.2287    -3.5542 C.ar    
  20 C20            3.1750    -3.5392    -4.0581 C.ar    
  21 C21            2.0522    -3.3938    -3.2546 C.ar    
  22 C22            2.1880    -2.9455    -1.9552 C.ar    
  23 N23            3.0408    -3.9982    -5.3761 N.pl3   
  24 F24            5.9677    -2.1553    -0.1629 F       
  25 C25            1.8964    -4.3370    -6.0009 C.2     
  26 N26            2.1954    -4.7135    -7.2179 N.2     
  27 C27            3.5119    -4.6296    -7.4067 C.2     
  28 N28            4.0721    -4.1908    -6.3098 N.2     
  29 H29            8.3062     1.6915    -0.2624 H       
  30 H30            8.1602    -0.7622    -0.2689 H       
  31 H31            1.5500    -0.5465     0.0692 H       
  32 H32            0.2524     3.8604     0.1503 H       
  33 H33            4.5042    -2.5326     0.3891 H       
  34 H34            2.7324    -2.4760     0.5497 H       
  35 H35            5.5364    -2.5346    -1.8630 H       
  36 H36            5.3060    -3.3405    -4.1770 H       
  37 H37            1.0740    -3.6345    -3.6439 H       
  38 H38            1.3150    -2.8325    -1.3295 H       
  39 H39            0.9056    -4.3039    -5.5724 H       
  40 H40            4.0317    -4.8796    -8.3198 H       
@<TRIPOS>BOND
   1    1    2 ar
   2    1    6 ar
   3    1   29 1
   4    2    3 ar
   5    2   30 1
   6    3    4 ar
   7    3   24 1
   8    4    5 ar
   9    4    7 1
  10    5    6 ar
  11    5   10 1
  12    6   11 1
  13    7    8 1
  14    7   16 1
  15    8    9 2
  16    8   31 1
  17    9   10 1
  18    9   13 1
  19   10   12 2
  20   13   14 1
  21   13   15 2
  22   14   32 1
  23   16   17 1
  24   16   33 1
  25   16   34 1
  26   17   18 ar
  27   17   22 ar
  28   18   19 ar
  29   18   35 1
  30   19   20 ar
  31   19   36 1
  32   20   21 ar
  33   20   23 1
  34   21   22 ar
  35   21   37 1
  36   22   38 1
  37   23   25 1
  38   23   28 1
  39   25   26 2
  40   25   39 1
  41   26   27 1
  42   27   28 2
  43   27   40 1

#	End of record

