#	Name: ASD01883317
#	Creating user name:	WinNT
#	Creation time:	15. 06. 2019 19:46

#	Modifying user name:	WinNT
#	Modification time:	15. 06. 2019 19:46

#	Program:	/corina/corina34_cracker 3.40 0067  02.08.2006

@<TRIPOS>MOLECULE
ASD01883317
  44   46    0    0    0
SMALL
NO_CHARGES


@<TRIPOS>ATOM
   1 N1            -0.0162     1.3419     0.0115 N.am    
   2 C2            -0.0003    -0.0006    -0.0854 C.2     
   3 C3            -1.2183    -0.7226    -0.0812 C.2     
   4 C4            -2.4225    -0.0124     0.0251 C.2     
   5 C5            -2.3754     1.3878     0.1233 C.2     
   6 C6            -1.1834     2.0265     0.1199 C.2     
   7 O7             1.0610    -0.5939    -0.1771 O.2     
   8 C8            -1.2203    -2.1509    -0.1839 C.1     
   9 N9            -1.2218    -3.2840    -0.2654 N.1     
  10 C10            1.2506     2.0777     0.0060 C.3     
  11 C11            1.6199     2.4315    -1.4116 C.ar    
  12 C12            1.1898     3.6259    -1.9592 C.ar    
  13 C13            1.5269     3.9525    -3.2585 C.ar    
  14 C14            2.2978     3.0809    -4.0138 C.ar    
  15 C15            2.7282     1.8830    -3.4620 C.ar    
  16 C16            2.3930     1.5636    -2.1604 C.ar    
  17 O17           -3.6076    -0.6636     0.0325 O.3     
  18 C18           -4.3747    -0.6012     1.2366 C.3     
  19 C19           -5.6532    -1.3788     1.0585 C.ar    
  20 C20           -5.6941    -2.7237     1.3756 C.ar    
  21 C21           -6.8669    -3.4370     1.2123 C.ar    
  22 C22           -7.9989    -2.8053     0.7323 C.ar    
  23 C23           -7.9583    -1.4602     0.4160 C.ar    
  24 C24           -6.7866    -0.7459     0.5835 C.ar    
  25 O25            2.6304     3.3997    -5.2923 O.3     
  26 C26            3.4263     2.4548    -6.0105 C.3     
  27 F27            2.7433     1.2366    -6.0924 F       
  28 F28            3.6740     2.9381    -7.2998 F       
  29 F29            4.6407     2.2645    -5.3424 F       
  30 H30           -3.2912     1.9543     0.2057 H       
  31 H31           -1.1600     3.1036     0.1963 H       
  32 H32            1.1432     2.9904     0.5921 H       
  33 H33            2.0335     1.4565     0.4412 H       
  34 H34            0.5894     4.3040    -1.3709 H       
  35 H35            1.1904     4.8855    -3.6859 H       
  36 H36            3.3284     1.2027    -4.0480 H       
  37 H37            2.7278     0.6312    -1.7304 H       
  38 H38           -3.7993    -1.0308     2.0566 H       
  39 H39           -4.6104     0.4385     1.4637 H       
  40 H40           -4.8097    -3.2172     1.7506 H       
  41 H41           -6.8986    -4.4878     1.4593 H       
  42 H42           -8.9150    -3.3627     0.6040 H       
  43 H43           -8.8426    -0.9668     0.0407 H       
  44 H44           -6.7549     0.3050     0.3364 H       
@<TRIPOS>BOND
   1    1    2 am
   2    1   10 1
   3    1    6 1
   4    2    3 1
   5    2    7 2
   6    3    4 2
   7    3    8 1
   8    4    5 1
   9    4   17 1
  10    5    6 2
  11    5   30 1
  12    6   31 1
  13    8    9 3
  14   10   11 1
  15   10   32 1
  16   10   33 1
  17   11   12 ar
  18   11   16 ar
  19   12   13 ar
  20   12   34 1
  21   13   14 ar
  22   13   35 1
  23   14   15 ar
  24   14   25 1
  25   15   16 ar
  26   15   36 1
  27   16   37 1
  28   17   18 1
  29   18   19 1
  30   18   38 1
  31   18   39 1
  32   19   20 ar
  33   19   24 ar
  34   20   21 ar
  35   20   40 1
  36   21   22 ar
  37   21   41 1
  38   22   23 ar
  39   22   42 1
  40   23   24 ar
  41   23   43 1
  42   24   44 1
  43   25   26 1
  44   26   27 1
  45   26   28 1
  46   26   29 1

#	End of record

