#	Name: ASD09610088
#	Creating user name:	WinNT
#	Creation time:	15. 06. 2019 21:22

#	Modifying user name:	WinNT
#	Modification time:	15. 06. 2019 21:22

#	Program:	/corina/corina34_cracker 3.40 0067  02.08.2006

@<TRIPOS>MOLECULE
ASD09610088
  47   50    0    0    0
SMALL
NO_CHARGES


@<TRIPOS>ATOM
   1 N1            -0.0144     1.3154     0.2370 N.ar    
   2 C2            -0.0003     0.0038     0.2123 C.ar    
   3 N3             1.1163    -0.7030     0.1407 N.ar    
   4 C4             2.3053    -0.1168     0.0889 C.ar    
   5 C5             2.3550     1.2971     0.1121 C.ar    
   6 C6             3.5660     2.0011     0.0619 C.ar    
   7 C7             3.5515     3.3671     0.0880 C.ar    
   8 C8             2.3517     4.0673     0.1641 C.ar    
   9 C9             1.1555     3.4112     0.2146 C.ar    
  10 C10            1.1329     2.0086     0.1893 C.ar    
  11 N11            3.4611    -0.8649     0.0149 N.pl3   
  12 C12            3.3971    -2.3245     0.1234 C.3     
  13 C13            4.8074    -2.9066     0.0101 C.3     
  14 C14            4.7416    -4.4081     0.1217 C.ar    
  15 C15            4.4782    -5.1743    -1.0018 C.ar    
  16 C16            4.4180    -6.5526    -0.9007 C.ar    
  17 C17            4.6217    -7.1659     0.3269 C.ar    
  18 C18            4.8852    -6.3952     1.4501 C.ar    
  19 C19            4.9498    -5.0190     1.3439 C.ar    
  20 O20            4.5627    -8.5197     0.4293 O.3     
  21 C21            5.5342    -9.2472    -0.1768 C.ar    
  22 C22            5.5648   -10.6265    -0.0124 C.ar    
  23 C23            6.5607   -11.3569    -0.6364 C.ar    
  24 C24            7.4956   -10.6786    -1.4067 C.ar    
  25 C25            7.4045    -9.3062    -1.5262 C.ar    
  26 N26            6.4401    -8.6373    -0.9231 N.ar    
  27 C27            6.6293   -12.8545    -0.4830 C.3     
  28 F28            5.8802   -13.4619    -1.4964 F       
  29 F29            7.9615   -13.2721    -0.5737 F       
  30 F30            6.1099   -13.2198     0.7636 F       
  31 F31            4.2797    -4.5754    -2.1964 F       
  32 F32            0.0006     4.1083     0.2888 F       
  33 F33            4.7386     1.3341    -0.0114 F       
  34 H34           -0.9423    -0.5229     0.2526 H       
  35 H35            4.4839     3.9106     0.0493 H       
  36 H36            2.3669     5.1471     0.1841 H       
  37 H37            4.3166    -0.4248    -0.1089 H       
  38 H38            2.9671    -2.5987     1.0867 H       
  39 H39            2.7746    -2.7215    -0.6785 H       
  40 H40            5.2374    -2.6324    -0.9532 H       
  41 H41            5.4299    -2.5097     0.8121 H       
  42 H42            4.2124    -7.1505    -1.7762 H       
  43 H43            5.0437    -6.8710     2.4066 H       
  44 H44            5.1594    -4.4199     2.2176 H       
  45 H45            4.8214   -11.1219     0.5945 H       
  46 H46            8.2859   -11.2187    -1.9068 H       
  47 H47            8.1295    -8.7738    -2.1240 H       
@<TRIPOS>BOND
   1    1    2 ar
   2    1   10 ar
   3    2    3 ar
   4    2   34 1
   5    3    4 ar
   6    4    5 ar
   7    4   11 1
   8    5    6 ar
   9    5   10 ar
  10    6    7 ar
  11    6   33 1
  12    7    8 ar
  13    7   35 1
  14    8    9 ar
  15    8   36 1
  16    9   10 ar
  17    9   32 1
  18   11   12 1
  19   11   37 1
  20   12   13 1
  21   12   38 1
  22   12   39 1
  23   13   14 1
  24   13   40 1
  25   13   41 1
  26   14   15 ar
  27   14   19 ar
  28   15   16 ar
  29   15   31 1
  30   16   17 ar
  31   16   42 1
  32   17   18 ar
  33   17   20 1
  34   18   19 ar
  35   18   43 1
  36   19   44 1
  37   20   21 1
  38   21   22 ar
  39   21   26 ar
  40   22   23 ar
  41   22   45 1
  42   23   24 ar
  43   23   27 1
  44   24   25 ar
  45   24   46 1
  46   25   26 ar
  47   25   47 1
  48   27   28 1
  49   27   29 1
  50   27   30 1

#	End of record

