#	Name: ASD00110027
#	Creating user name:	WinNT
#	Creation time:	15. 06. 2019 18:30

#	Modifying user name:	WinNT
#	Modification time:	15. 06. 2019 18:30

#	Program:	/corina/corina34_cracker 3.40 0067  02.08.2006

@<TRIPOS>MOLECULE
ASD00110027
  81   82    0    0    0
SMALL
NO_CHARGES


@<TRIPOS>ATOM
   1 C1            -0.0187     1.5270     0.0104 C.3     
   2 C2            -1.4335    -0.5293     0.0744 C.3     
   3 C3            -1.4169    -2.0361     0.0863 C.2     
   4 N4            -1.2604    -2.7174    -1.0660 N.am    
   5 O5            -1.5445    -2.6357     1.1328 O.2     
   6 C6            -1.2442    -4.1823    -1.0544 C.3     
   7 C7            -2.6798    -4.7086    -1.1092 C.3     
   8 O8            -3.2724    -4.3469    -2.3582 O.3     
   9 C9            -0.4670    -4.6934    -2.2691 C.3     
  10 O10           -1.0976    -4.2334    -3.4661 O.3     
  11 C11            1.4162     2.0578    -0.0004 C.3     
  12 C12            1.3948     3.5832    -0.1177 C.3     
  13 N13           -2.0748    -0.0373     1.3005 N.3     
  14 C14           -2.1488     1.4293     1.3093 C.3     
  15 C15           -0.7345     2.0129     1.2737 C.3     
  16 C16            0.0021    -0.0041     0.0020 C.3     
  17 C17            2.8297     4.1141    -0.1286 C.3     
  18 C18            2.8083     5.6394    -0.2459 C.3     
  19 C19            4.2432     6.1703    -0.2568 C.3     
  20 C20            4.2218     7.6956    -0.3741 C.3     
  21 C21            5.6567     8.2265    -0.3850 C.3     
  22 C22            5.6352     9.7518    -0.5023 C.3     
  23 C23            7.0701    10.2827    -0.5131 C.3     
  24 C24            7.0487    11.8081    -0.6305 C.3     
  25 C25            8.4836    12.3389    -0.6413 C.3     
  26 C26            0.9470    -4.1750    -2.2152 C.ar    
  27 C27            3.5412    -3.2242    -2.1167 C.ar    
  28 C28            2.5221    -2.4067    -2.5683 C.ar    
  29 C29            1.2251    -2.8822    -2.6178 C.ar    
  30 C30            1.9651    -4.9905    -1.7577 C.ar    
  31 C31            3.2622    -4.5150    -1.7082 C.ar    
  32 S32            5.1945    -2.6181    -2.0536 S.o2    
  33 O33            5.9995    -3.7837    -2.1649 O.2     
  34 O34            5.2337    -1.6030    -3.0471 O.2     
  35 C35            5.3483    -1.8941    -0.3974 C.3     
  36 H36           -0.5477     1.8889    -0.8712 H       
  37 H37           -1.9924    -0.1790    -0.7934 H       
  38 H38           -1.1584    -2.2379    -1.9029 H       
  39 H39           -0.7632    -4.5332    -0.1414 H       
  40 H40           -2.6728    -5.7941    -1.0112 H       
  41 H41           -3.2576    -4.2738    -0.2935 H       
  42 H42           -4.1852    -4.6487    -2.4626 H       
  43 H43           -0.4550    -5.7833    -2.2605 H       
  44 H44           -1.1436    -3.2704    -3.5414 H       
  45 H45            1.9165     1.7716     0.9247 H       
  46 H46            1.9534     1.6356    -0.8497 H       
  47 H47            0.8945     3.8694    -1.0429 H       
  48 H48            0.8576     4.0054     0.7315 H       
  49 H49           -2.9896    -0.4462     1.4192 H       
  50 H50           -2.7044     1.7701     0.4357 H       
  51 H51           -2.6563     1.7619     2.2148 H       
  52 H52           -0.1827     1.6836     2.1542 H       
  53 H53           -0.7902     3.1015     1.2645 H       
  54 H54            0.4727    -0.3566    -0.9158 H       
  55 H55            0.5655    -0.3651     0.8624 H       
  56 H56            3.3300     3.8278     0.7965 H       
  57 H57            3.3669     3.6918    -0.9779 H       
  58 H58            2.3080     5.9257    -1.1710 H       
  59 H59            2.2711     6.0616     0.6033 H       
  60 H60            4.7435     5.8840     0.6683 H       
  61 H61            4.7804     5.7480    -1.1060 H       
  62 H62            3.7214     7.9819    -1.2992 H       
  63 H63            3.6846     8.1178     0.4751 H       
  64 H64            6.1570     7.9402     0.5402 H       
  65 H65            6.1939     7.8043    -1.2342 H       
  66 H66            5.1349    10.0381    -1.4274 H       
  67 H67            5.0980    10.1741     0.3470 H       
  68 H68            7.5705     9.9965     0.4120 H       
  69 H69            7.6073     9.8605    -1.3624 H       
  70 H70            6.5484    12.0943    -1.5556 H       
  71 H71            6.5115    12.2303     0.2188 H       
  72 H72            8.4684    13.4256    -0.7249 H       
  73 H73            8.9839    12.0527     0.2838 H       
  74 H74            9.0208    11.9167    -1.4906 H       
  75 H75            2.7401    -1.3982    -2.8875 H       
  76 H76            0.4290    -2.2437    -2.9715 H       
  77 H77            1.7472    -5.9990    -1.4385 H       
  78 H78            4.0584    -5.1537    -1.3553 H       
  79 H79            5.1679    -2.6633     0.3535 H       
  80 H80            6.3524    -1.4898    -0.2694 H       
  81 H81            4.6169    -1.0943    -0.2812 H       
@<TRIPOS>BOND
   1    1   16 1
   2    1   11 1
   3    1   15 1
   4    1   36 1
   5    2    3 1
   6    2   13 1
   7    2   16 1
   8    2   37 1
   9    3    4 am
  10    3    5 2
  11    4    6 1
  12    4   38 1
  13    6    7 1
  14    6    9 1
  15    6   39 1
  16    7    8 1
  17    7   40 1
  18    7   41 1
  19    8   42 1
  20    9   10 1
  21    9   26 1
  22    9   43 1
  23   10   44 1
  24   11   12 1
  25   11   45 1
  26   11   46 1
  27   12   17 1
  28   12   47 1
  29   12   48 1
  30   13   14 1
  31   13   49 1
  32   14   15 1
  33   14   50 1
  34   14   51 1
  35   15   52 1
  36   15   53 1
  37   16   54 1
  38   16   55 1
  39   17   18 1
  40   17   56 1
  41   17   57 1
  42   18   19 1
  43   18   58 1
  44   18   59 1
  45   19   20 1
  46   19   60 1
  47   19   61 1
  48   20   21 1
  49   20   62 1
  50   20   63 1
  51   21   22 1
  52   21   64 1
  53   21   65 1
  54   22   23 1
  55   22   66 1
  56   22   67 1
  57   23   24 1
  58   23   68 1
  59   23   69 1
  60   24   25 1
  61   24   70 1
  62   24   71 1
  63   25   72 1
  64   25   73 1
  65   25   74 1
  66   26   30 ar
  67   26   29 ar
  68   27   28 ar
  69   27   31 ar
  70   27   32 1
  71   28   29 ar
  72   28   75 1
  73   29   76 1
  74   30   31 ar
  75   30   77 1
  76   31   78 1
  77   32   33 2
  78   32   34 2
  79   32   35 1
  80   35   79 1
  81   35   80 1
  82   35   81 1

#	End of record

