#	Name: ASD02508358
#	Creating user name:	WinNT
#	Creation time:	15. 06. 2019 20:24

#	Modifying user name:	WinNT
#	Modification time:	15. 06. 2019 20:24

#	Program:	/corina/corina34_cracker 3.40 0067  02.08.2006

@<TRIPOS>MOLECULE
ASD02508358
  39   41    0    0    0
SMALL
NO_CHARGES


@<TRIPOS>ATOM
   1 C1             0.6224     1.5297     0.6620 C.2     
   2 C2             0.4662     0.1281     0.6634 C.2     
   3 C3             1.6078    -0.4075     0.1882 C.2     
   4 N4             2.4674     0.6138    -0.1081 N.pl3   
   5 C5             1.8539     1.7998     0.1860 C.2     
   6 C6             3.7544     0.4698    -0.6236 C.ar    
   7 N7             4.4783     1.5513    -0.8636 N.ar    
   8 N8             4.2245    -0.7453    -0.8559 N.ar    
   9 C9             5.4415    -0.9178    -1.3446 C.ar    
  10 C10            6.2255     0.1933    -1.6132 C.ar    
  11 C11            5.7032     1.4506    -1.3526 C.ar    
  12 S12            1.9361    -2.1265    -0.0160 S.o2    
  13 O13            1.6574    -2.4295    -1.3761 O.2     
  14 O14            3.1975    -2.3691     0.5916 O.2     
  15 N15            0.8170    -2.9497     0.8852 N.am    
  16 C16            0.7726    -2.7777     2.2706 C.ar    
  17 C17           -0.4447    -2.5754     2.9083 C.ar    
  18 C18            1.9452    -2.8141     3.0144 C.ar    
  19 C19            1.8978    -2.6435     4.3841 C.ar    
  20 C20            0.6848    -2.4371     5.0152 C.ar    
  21 C21           -0.4850    -2.4056     4.2783 C.ar    
  22 C22            3.1694    -2.6829     5.1919 C.3     
  23 C23           -1.8046    -2.1804     4.9704 C.3     
  24 H24           -0.1124     2.2544     0.9800 H       
  25 H25           -0.4085    -0.4165     0.9868 H       
  26 H26            2.2821     2.7831     0.0585 H       
  27 H27            5.8196    -1.9119    -1.5317 H       
  28 H28            7.2228     0.0818    -2.0126 H       
  29 H29            6.2875     2.3371    -1.5504 H       
  30 H30            0.1922    -3.5514     0.4510 H       
  31 H31           -1.3587    -2.5506     2.3334 H       
  32 H32            2.8928    -2.9759     2.5223 H       
  33 H33            0.6504    -2.3048     6.0865 H       
  34 H34            3.5852    -1.6779     5.2641 H       
  35 H35            2.9532    -3.0593     6.1917 H       
  36 H36            3.8895    -3.3399     4.7042 H       
  37 H37           -2.0159    -1.1118     5.0110 H       
  38 H38           -2.5959    -2.6864     4.4173 H       
  39 H39           -1.7565    -2.5800     5.9833 H       
@<TRIPOS>BOND
   1    1    2 1
   2    1    5 2
   3    1   24 1
   4    2    3 2
   5    2   25 1
   6    3    4 1
   7    3   12 1
   8    4    5 1
   9    4    6 1
  10    5   26 1
  11    6    7 ar
  12    6    8 ar
  13    7   11 ar
  14    8    9 ar
  15    9   10 ar
  16    9   27 1
  17   10   11 ar
  18   10   28 1
  19   11   29 1
  20   12   13 2
  21   12   14 2
  22   12   15 am
  23   15   16 1
  24   15   30 1
  25   16   17 ar
  26   16   18 ar
  27   17   21 ar
  28   17   31 1
  29   18   19 ar
  30   18   32 1
  31   19   20 ar
  32   19   22 1
  33   20   21 ar
  34   20   33 1
  35   21   23 1
  36   22   34 1
  37   22   35 1
  38   22   36 1
  39   23   37 1
  40   23   38 1
  41   23   39 1

#	End of record

