#	Name: ASD05130037
#	Creating user name:	WinNT
#	Creation time:	15. 06. 2019 20:56

#	Modifying user name:	WinNT
#	Modification time:	15. 06. 2019 20:56

#	Program:	/corina/corina34_cracker 3.40 0067  02.08.2006

@<TRIPOS>MOLECULE
ASD05130037
  57   61    0    0    0
SMALL
NO_CHARGES


@<TRIPOS>ATOM
   1 N1            -0.0686     1.1748    -0.6211 N.am    
   2 C2            -0.0803    -0.1707    -0.6973 C.2     
   3 O3             0.7528    -0.7490    -1.3684 O.2     
   4 N4            -1.0153    -0.8754    -0.0297 N.am    
   5 C5            -1.0842    -2.2663    -0.1803 C.ar    
   6 C6            -2.3181    -2.9095    -0.1502 C.ar    
   7 C7            -2.3896    -4.2834    -0.2982 C.ar    
   8 C8            -1.2376    -5.0231    -0.4770 C.ar    
   9 C9             0.0026    -4.3863    -0.5088 C.ar    
  10 C10            0.0753    -3.0015    -0.3650 C.ar    
  11 N11            3.0584    -5.8836    -2.1648 N.am    
  12 C12            1.9328    -5.1637    -1.9902 C.2     
  13 C13            1.2397    -5.1790    -0.7001 C.2     
  14 C14            1.7423    -5.9297     0.3275 C.2     
  15 C15            2.9255    -6.6774     0.1193 C.ar    
  16 C16            3.4747    -7.4597     1.1428 C.ar    
  17 N17            4.5748    -8.1490     0.9326 N.ar    
  18 C18            5.2055    -8.1368    -0.2370 C.ar    
  19 C19            4.7297    -7.3888    -1.3046 C.ar    
  20 C20            3.5700    -6.6413    -1.1366 C.ar    
  21 O21            1.4905    -4.4970    -2.9088 O.2     
  22 N22            6.3624    -8.8861    -0.3937 N.pl3   
  23 C23            7.0690    -8.8830    -1.6770 C.3     
  24 C24            3.7394    -5.8644    -3.4618 C.3     
  25 C25           -1.3204    -6.5193    -0.6372 C.3     
  26 F26           -3.4486    -2.1908     0.0245 F       
  27 C27            2.1113     3.8460    -1.9465 C.ar    
  28 C28            0.9642     3.3578    -1.3146 C.ar    
  29 C29            0.9766     1.9043    -1.2177 C.2     
  30 C30            2.0466     1.3241    -1.7336 C.2     
  31 S31            3.1583     2.5062    -2.3964 S.3     
  32 C32           -0.0116     4.2751    -0.8713 C.ar    
  33 C33            0.1633     5.6124    -1.0569 C.ar    
  34 C34            1.3034     6.0951    -1.6849 C.ar    
  35 C35            2.2728     5.2240    -2.1227 C.ar    
  36 H36           -0.7827     1.6406    -0.1586 H       
  37 H37           -1.6405    -0.4193     0.5552 H       
  38 H38           -3.3491    -4.7785    -0.2734 H       
  39 H39            1.0333    -2.5037    -0.3935 H       
  40 H40            1.2428    -5.9509     1.2848 H       
  41 H41            2.9931    -7.4968     2.1087 H       
  42 H42            5.2519    -7.3872    -2.2499 H       
  43 H43            6.7035    -9.4121     0.3465 H       
  44 H44            7.9477    -9.5244    -1.6095 H       
  45 H45            6.4060    -9.2559    -2.4577 H       
  46 H46            7.3790    -7.8663    -1.9185 H       
  47 H47            3.1925    -5.2197    -4.1498 H       
  48 H48            4.7527    -5.4834    -3.3345 H       
  49 H49            3.7797    -6.8759    -3.8660 H       
  50 H50           -1.4253    -6.7662    -1.6937 H       
  51 H51           -0.4123    -6.9775    -0.2454 H       
  52 H52           -2.1835    -6.8962    -0.0885 H       
  53 H53            2.2146     0.2573    -1.7452 H       
  54 H54           -0.9038     3.9139    -0.3815 H       
  55 H55           -0.5918     6.3038    -0.7130 H       
  56 H56            1.4309     7.1582    -1.8265 H       
  57 H57            3.1580     5.6044    -2.6107 H       
@<TRIPOS>BOND
   1    1    2 am
   2    1   29 1
   3    1   36 1
   4    2    3 2
   5    2    4 am
   6    4    5 1
   7    4   37 1
   8    5    6 ar
   9    5   10 ar
  10    6    7 ar
  11    6   26 1
  12    7    8 ar
  13    7   38 1
  14    8    9 ar
  15    8   25 1
  16    9   10 ar
  17    9   13 1
  18   10   39 1
  19   11   12 am
  20   11   20 1
  21   11   24 1
  22   12   13 1
  23   12   21 2
  24   13   14 2
  25   14   15 1
  26   14   40 1
  27   15   16 ar
  28   15   20 ar
  29   16   17 ar
  30   16   41 1
  31   17   18 ar
  32   18   19 ar
  33   18   22 1
  34   19   20 ar
  35   19   42 1
  36   22   23 1
  37   22   43 1
  38   23   44 1
  39   23   45 1
  40   23   46 1
  41   24   47 1
  42   24   48 1
  43   24   49 1
  44   25   50 1
  45   25   51 1
  46   25   52 1
  47   27   28 ar
  48   27   31 1
  49   27   35 ar
  50   28   29 1
  51   28   32 ar
  52   29   30 2
  53   30   31 1
  54   30   53 1
  55   32   33 ar
  56   32   54 1
  57   33   34 ar
  58   33   55 1
  59   34   35 ar
  60   34   56 1
  61   35   57 1

#	End of record

