#	Name: ASD02198427
#	Creating user name:	WinNT
#	Creation time:	15. 06. 2019 20:19

#	Modifying user name:	WinNT
#	Modification time:	15. 06. 2019 20:19

#	Program:	/corina/corina34_cracker 3.40 0067  02.08.2006

@<TRIPOS>MOLECULE
ASD02198427
  40   42    0    0    0
SMALL
NO_CHARGES


@<TRIPOS>ATOM
   1 C1             0.1691     1.8699     0.1939 C.ar    
   2 S2             0.0782     0.1165     0.0461 S.o2    
   3 N3             0.0238    -0.5027     1.5810 N.am    
   4 C4            -1.0183    -0.1515     2.4378 C.ar    
   5 C5            -0.7756     0.0139     3.8197 C.ar    
   6 C6            -1.8486     0.3715     4.6724 C.ar    
   7 C7            -3.1330     0.5558     4.1377 C.ar    
   8 C8            -3.3419     0.3878     2.7872 C.ar    
   9 C9            -2.2872     0.0413     1.9402 C.ar    
  10 N10            0.4471    -0.1627     4.3277 N.ar    
  11 C11            0.6822    -0.0119     5.6084 C.ar    
  12 C12           -0.3273     0.3389     6.5023 C.ar    
  13 C13           -1.6005     0.5350     6.0491 C.ar    
  14 O14           -1.1803    -0.1715    -0.5476 O.2     
  15 O15            1.3155    -0.3037    -0.5125 O.2     
  16 C16            1.4009     2.4934     0.2687 C.ar    
  17 C17           -0.9916     2.6206     0.2293 C.ar    
  18 C18           -0.9230     3.9955     0.3447 C.ar    
  19 C19            0.3116     4.6230     0.4252 C.ar    
  20 C20            1.4748     3.8679     0.3847 C.ar    
  21 O21           -4.5866     0.5668     2.2722 O.3     
  22 C22           -5.6223     0.9266     3.1886 C.3     
  23 O23            0.3817     5.9754     0.5383 O.3     
  24 C24            1.6864     6.5532     0.6164 C.3     
  25 H25            0.7171    -1.1098     1.8840 H       
  26 H26           -3.9548     0.8281     4.7833 H       
  27 H27           -2.4709    -0.0856     0.8835 H       
  28 H28            1.6846    -0.1640     5.9804 H       
  29 H29           -0.1031     0.4559     7.5523 H       
  30 H30           -2.3953     0.8072     6.7277 H       
  31 H31            2.3061     1.9052     0.2368 H       
  32 H32           -1.9525     2.1316     0.1662 H       
  33 H33           -1.8299     4.5814     0.3719 H       
  34 H34            2.4372     4.3541     0.4471 H       
  35 H35           -5.7269     0.1468     3.9430 H       
  36 H36           -5.3675     1.8691     3.6731 H       
  37 H37           -6.5626     1.0382     2.6486 H       
  38 H38            2.2067     6.1589     1.4892 H       
  39 H39            2.2480     6.3052    -0.2843 H       
  40 H40            1.5995     7.6362     0.7037 H       
@<TRIPOS>BOND
   1    1    2 1
   2    1   16 ar
   3    1   17 ar
   4    2    3 am
   5    2   14 2
   6    2   15 2
   7    3    4 1
   8    3   25 1
   9    4    5 ar
  10    4    9 ar
  11    5    6 ar
  12    5   10 ar
  13    6    7 ar
  14    6   13 ar
  15    7    8 ar
  16    7   26 1
  17    8    9 ar
  18    8   21 1
  19    9   27 1
  20   10   11 ar
  21   11   12 ar
  22   11   28 1
  23   12   13 ar
  24   12   29 1
  25   13   30 1
  26   16   20 ar
  27   16   31 1
  28   17   18 ar
  29   17   32 1
  30   18   19 ar
  31   18   33 1
  32   19   20 ar
  33   19   23 1
  34   20   34 1
  35   21   22 1
  36   22   35 1
  37   22   36 1
  38   22   37 1
  39   23   24 1
  40   24   38 1
  41   24   39 1
  42   24   40 1

#	End of record

