#	Name: ASD05740014
#	Creating user name:	WinNT
#	Creation time:	15. 06. 2019 21:02

#	Modifying user name:	WinNT
#	Modification time:	15. 06. 2019 21:02

#	Program:	/corina/corina34_cracker 3.40 0067  02.08.2006

@<TRIPOS>MOLECULE
ASD05740014
  52   55    0    0    0
SMALL
NO_CHARGES


@<TRIPOS>ATOM
   1 C1            -0.0215     1.7128     0.1098 C.2     
   2 C2             0.8992     3.8387    -0.0904 C.ar    
   3 C3             1.8191     6.0133    -0.4858 C.ar    
   4 C4             0.5524     6.5758    -0.2897 C.ar    
   5 C5            -0.5479     5.7488     0.0038 C.ar    
   6 C6            -0.3625     4.3780     0.1015 C.ar    
   7 C7             0.3460     8.0220    -0.3897 C.2     
   8 C8            -0.9069     8.5071    -0.1884 C.2     
   9 C9            -1.9629     7.6207     0.1075 C.2     
  10 O10           -1.7680     6.2954     0.1930 O.3     
  11 C11           -1.1674     9.9885    -0.2806 C.3     
  12 C12           -1.6478    10.3287    -1.6678 C.ar    
  13 C13           -2.8456    11.0024    -1.8499 C.ar    
  14 O14           -3.0812     8.0688     0.2861 O.2     
  15 N15           -0.9291     9.9930    -2.7261 N.ar    
  16 C16           -1.3452    10.2887    -3.9490 C.ar    
  17 N17           -2.4871    10.9271    -4.1575 N.ar    
  18 C18           -3.2509    11.2958    -3.1422 C.ar    
  19 O19            1.0793     2.4968     0.0052 O.3     
  20 N20           -0.5680     9.9224    -5.0341 N.am    
  21 S21           -1.2148     9.9375    -6.5585 S.o2    
  22 O22           -0.1559     9.4882    -7.3929 O.2     
  23 O23           -2.4180     9.1916    -6.4361 O.2     
  24 C24            1.4925     8.9473    -0.7068 C.3     
  25 N25           -1.2423     2.1284    -0.0109 N.2     
  26 S26           -0.0002     0.0304     0.4131 S.3     
  27 C27           -1.7607    -0.0116     0.3626 C.2     
  28 C28           -2.1968     1.2248     0.1155 C.2     
  29 C29            1.9840     4.6625    -0.3864 C.ar    
  30 C30            3.3479     4.0573    -0.5975 C.3     
  31 C31           -1.5792    11.6855    -6.8782 C.3     
  32 C32           -2.1888    11.8324    -8.2739 C.3     
  33 H33            2.6641     6.6471    -0.7111 H       
  34 H34           -1.1990     3.7329     0.3262 H       
  35 H35           -1.9291    10.2694     0.4468 H       
  36 H36           -0.2467    10.5330    -0.0712 H       
  37 H37           -3.4500    11.2919    -1.0030 H       
  38 H38           -4.1810    11.8156    -3.3186 H       
  39 H39            0.3555     9.6569    -4.9016 H       
  40 H40            1.5702     9.0727    -1.7868 H       
  41 H41            1.3168     9.9166    -0.2402 H       
  42 H42            2.4196     8.5219    -0.3228 H       
  43 H43           -2.3786    -0.8867     0.4996 H       
  44 H44           -3.2458     1.4687     0.0349 H       
  45 H45            3.4777     3.8129    -1.6518 H       
  46 H46            4.1132     4.7712    -0.2932 H       
  47 H47            3.4392     3.1500    -0.0003 H       
  48 H48           -2.2854    12.0517    -6.1330 H       
  49 H49           -0.6579    12.2651    -6.8214 H       
  50 H50           -1.4827    11.4663    -9.0191 H       
  51 H51           -3.1102    11.2528    -8.3307 H       
  52 H52           -2.4078    12.8827    -8.4660 H       
@<TRIPOS>BOND
   1    1   26 1
   2    1   19 1
   3    1   25 2
   4    2   19 1
   5    2   29 ar
   6    2    6 ar
   7    3    4 ar
   8    3   29 ar
   9    3   33 1
  10    4    5 ar
  11    4    7 1
  12    5    6 ar
  13    5   10 1
  14    6   34 1
  15    7    8 2
  16    7   24 1
  17    8    9 1
  18    8   11 1
  19    9   10 1
  20    9   14 2
  21   11   12 1
  22   11   35 1
  23   11   36 1
  24   12   13 ar
  25   12   15 ar
  26   13   18 ar
  27   13   37 1
  28   15   16 ar
  29   16   17 ar
  30   16   20 1
  31   17   18 ar
  32   18   38 1
  33   20   21 am
  34   20   39 1
  35   21   22 2
  36   21   23 2
  37   21   31 1
  38   24   40 1
  39   24   41 1
  40   24   42 1
  41   25   28 1
  42   26   27 1
  43   27   28 2
  44   27   43 1
  45   28   44 1
  46   29   30 1
  47   30   45 1
  48   30   46 1
  49   30   47 1
  50   31   32 1
  51   31   48 1
  52   31   49 1
  53   32   50 1
  54   32   51 1
  55   32   52 1

#	End of record

