#	Name: ASD03430048
#	Creating user name:	WinNT
#	Creation time:	15. 06. 2019 20:40

#	Modifying user name:	WinNT
#	Modification time:	15. 06. 2019 20:40

#	Program:	/corina/corina34_cracker 3.40 0067  02.08.2006

@<TRIPOS>MOLECULE
ASD03430048
  52   57    0    0    0
SMALL
NO_CHARGES


@<TRIPOS>ATOM
   1 C1            -0.0168     1.3898     0.0097 C.ar    
   2 C2             0.0021    -0.0041     0.0020 C.ar    
   3 C3             1.2022    -0.6764    -0.0138 C.ar    
   4 C4             2.4079     0.0214    -0.0144 C.ar    
   5 C5             2.3846     1.4145    -0.0108 C.ar    
   6 C6             1.1867     2.0932     0.0020 C.ar    
   7 O7             3.4712    -0.8316    -0.0063 O.3     
   8 C8             1.5545    -2.1398    -0.0451 C.3     
   9 C9             3.0383    -2.1363    -0.4372 C.3     
  10 C10            0.4347    -3.8487     1.0260 C.ar    
  11 C11            1.3269    -2.8092     1.2781 C.ar    
  12 C12            0.7171    -2.9057    -1.0280 C.2     
  13 N13            0.0973    -3.8779    -0.3294 N.am    
  14 O14            0.6172    -2.6913    -2.2176 O.2     
  15 C15            1.8025    -2.5865     2.5505 C.ar    
  16 C16            1.3946    -3.3986     3.5943 C.ar    
  17 C17            0.5081    -4.4323     3.3559 C.ar    
  18 C18            0.0291    -4.6599     2.0823 C.ar    
  19 C19           -0.8223    -4.8520    -0.9225 C.3     
  20 C20           -2.2278    -4.3106    -0.8733 C.2     
  21 C21           -1.3086     2.1194     0.0198 C.ar    
  22 C22           -1.3334     3.5179     0.0275 C.ar    
  23 C23           -2.5608     4.1530     0.0368 C.ar    
  24 C24           -3.7209     3.3881     0.0382 C.ar    
  25 N25           -3.6632     2.0663     0.0312 N.ar    
  26 C26           -2.5136     1.4219     0.0160 C.ar    
  27 C27           -2.8015    -3.5744    -1.8257 C.2     
  28 C28           -4.1047    -3.1889    -1.5600 C.2     
  29 C29           -4.5886    -3.6133    -0.3904 C.2     
  30 S30           -3.3643    -4.5597     0.4456 S.3     
  31 Cl31          -6.1845    -3.2871     0.2101 Cl      
  32 O32           -4.9292     4.0050     0.0474 O.3     
  33 C33           -6.0860     3.1660     0.0484 C.3     
  34 H34           -0.9259    -0.5565     0.0089 H       
  35 H35            3.3131     1.9661    -0.0177 H       
  36 H36            1.1794     3.1732     0.0057 H       
  37 H37            3.1541    -2.2462    -1.5154 H       
  38 H38            3.5807    -2.9190     0.0933 H       
  39 H39            2.4947    -1.7781     2.7343 H       
  40 H40            1.7676    -3.2249     4.5929 H       
  41 H41            0.1892    -5.0651     4.1709 H       
  42 H42           -0.6632    -5.4694     1.9043 H       
  43 H43           -0.5393    -5.0344    -1.9592 H       
  44 H44           -0.7729    -5.7859    -0.3627 H       
  45 H45           -0.4159     4.0875     0.0266 H       
  46 H46           -2.6177     5.2315     0.0433 H       
  47 H47           -2.5061     0.3419     0.0103 H       
  48 H48           -2.2884    -3.2992    -2.7353 H       
  49 H49           -4.6852    -2.5905    -2.2465 H       
  50 H50           -6.0742     2.5319     0.9349 H       
  51 H51           -6.9834     3.7846     0.0560 H       
  52 H52           -6.0827     2.5416    -0.8450 H       
@<TRIPOS>BOND
   1    1    2 ar
   2    1    6 ar
   3    1   21 1
   4    2    3 ar
   5    2   34 1
   6    3    4 ar
   7    3    8 1
   8    4    5 ar
   9    4    7 1
  10    5    6 ar
  11    5   35 1
  12    6   36 1
  13    7    9 1
  14    8    9 1
  15    8   11 1
  16    8   12 1
  17    9   37 1
  18    9   38 1
  19   10   11 ar
  20   10   13 1
  21   10   18 ar
  22   11   15 ar
  23   12   13 am
  24   12   14 2
  25   13   19 1
  26   15   16 ar
  27   15   39 1
  28   16   17 ar
  29   16   40 1
  30   17   18 ar
  31   17   41 1
  32   18   42 1
  33   19   20 1
  34   19   43 1
  35   19   44 1
  36   20   27 2
  37   20   30 1
  38   21   22 ar
  39   21   26 ar
  40   22   23 ar
  41   22   45 1
  42   23   24 ar
  43   23   46 1
  44   24   25 ar
  45   24   32 1
  46   25   26 ar
  47   26   47 1
  48   27   28 1
  49   27   48 1
  50   28   29 2
  51   28   49 1
  52   29   30 1
  53   29   31 1
  54   32   33 1
  55   33   50 1
  56   33   51 1
  57   33   52 1

#	End of record

