#	Name: ASD08070152
#	Creating user name:	WinNT
#	Creation time:	15. 06. 2019 21:14

#	Modifying user name:	WinNT
#	Modification time:	15. 06. 2019 21:14

#	Program:	/corina/corina34_cracker 3.40 0067  02.08.2006

@<TRIPOS>MOLECULE
ASD08070152
  45   47    0    0    0
SMALL
NO_CHARGES


@<TRIPOS>ATOM
   1 C1            -0.0167     1.3808     0.0096 C.ar    
   2 C2             0.0021    -0.0041     0.0020 C.ar    
   3 C3             1.2065    -0.6871    -0.0131 C.ar    
   4 C4             2.4059     0.0181    -0.0208 C.ar    
   5 C5             2.3866     1.4181    -0.0131 C.ar    
   6 C6             1.1628     2.0930     0.0022 C.ar    
   7 O7             3.5887    -0.6478    -0.0352 O.3     
   8 N8             3.6294     3.5246    -0.0131 N.am    
   9 C9             3.6519     2.1771    -0.0206 C.2     
  10 C10            5.9713     3.3408    -2.0430 C.ar    
  11 C11            5.3624     4.4351    -1.4409 C.ar    
  12 C12            4.8856     4.2783    -0.0206 C.3     
  13 C13            6.4244     3.4154    -3.3439 C.ar    
  14 C14            6.2710     4.5876    -4.0591 C.ar    
  15 C15            5.6660     5.6809    -3.4630 C.ar    
  16 C16            5.2124     5.6062    -2.1470 C.ar    
  17 C17            4.5777     6.8362    -1.5528 C.3     
  18 C18            3.7680     6.4756    -0.3090 C.3     
  19 C19            4.6573     5.6443     0.6232 C.3     
  20 O20            4.7148     1.5869    -0.0335 O.2     
  21 C21            3.9631     5.4674     1.9751 C.3     
  22 O22            1.2171    -2.0470    -0.0201 O.3     
  23 O23            5.5134     6.8343    -4.1653 O.3     
  24 C24            5.9998     6.8449    -5.5089 C.3     
  25 H25           -0.9608     1.9052     0.0169 H       
  26 H26           -0.9274    -0.5540     0.0083 H       
  27 H27            1.1417     3.1728     0.0078 H       
  28 H28            3.9232    -0.8363    -0.9227 H       
  29 H29            2.7814     3.9955    -0.0028 H       
  30 H30            6.0951     2.4242    -1.4855 H       
  31 H31            5.6355     3.7325     0.5521 H       
  32 H32            6.8981     2.5597    -3.8021 H       
  33 H33            6.6219     4.6509    -5.0785 H       
  34 H34            5.3577     7.5471    -1.2802 H       
  35 H35            3.9183     7.2927    -2.2910 H       
  36 H36            3.4524     7.3862     0.2003 H       
  37 H37            2.8927     5.8933    -0.5969 H       
  38 H38            5.6135     6.1482     0.7641 H       
  39 H39            3.0121     4.9548     1.8309 H       
  40 H40            4.5981     4.8761     2.6349 H       
  41 H41            3.7847     6.4451     2.4227 H       
  42 H42            1.2116    -2.4359    -0.9054 H       
  43 H43            7.0706     6.6413    -5.5093 H       
  44 H44            5.4841     6.0789    -6.0881 H       
  45 H45            5.8157     7.8226    -5.9543 H       
@<TRIPOS>BOND
   1    1    2 ar
   2    1    6 ar
   3    1   25 1
   4    2    3 ar
   5    2   26 1
   6    3    4 ar
   7    3   22 1
   8    4    5 ar
   9    4    7 1
  10    5    6 ar
  11    5    9 1
  12    6   27 1
  13    7   28 1
  14    8    9 am
  15    8   12 1
  16    8   29 1
  17    9   20 2
  18   10   11 ar
  19   10   13 ar
  20   10   30 1
  21   11   12 1
  22   11   16 ar
  23   12   19 1
  24   12   31 1
  25   13   14 ar
  26   13   32 1
  27   14   15 ar
  28   14   33 1
  29   15   16 ar
  30   15   23 1
  31   16   17 1
  32   17   18 1
  33   17   34 1
  34   17   35 1
  35   18   19 1
  36   18   36 1
  37   18   37 1
  38   19   21 1
  39   19   38 1
  40   21   39 1
  41   21   40 1
  42   21   41 1
  43   22   42 1
  44   23   24 1
  45   24   43 1
  46   24   44 1
  47   24   45 1

#	End of record

