#	Name: ASD01200417
#	Creating user name:	WinNT
#	Creation time:	15. 06. 2019 19:09

#	Modifying user name:	WinNT
#	Modification time:	15. 06. 2019 19:09

#	Program:	/corina/corina34_cracker 3.40 0067  02.08.2006

@<TRIPOS>MOLECULE
ASD01200417
  57   60    0    0    0
SMALL
NO_CHARGES


@<TRIPOS>ATOM
   1 C1            -2.3616    -1.4520     4.0184 C.2     
   2 C2            -1.6862    -2.1813     2.9332 C.ar    
   3 C3            -0.4617    -2.8306     3.1648 C.ar    
   4 C4             0.1301    -3.4963     2.1267 C.ar    
   5 C5            -0.4930    -3.5114     0.8792 C.ar    
   6 N6            -1.6492    -2.8904     0.6865 N.ar    
   7 C7            -2.2559    -2.2431     1.6587 C.ar    
   8 O8            -1.8572    -1.4078     5.1322 O.co2   
   9 O9            -3.4249    -0.8856     3.8055 O.co2   
  10 N10            0.1034    -4.1834    -0.1727 N.pl3   
  11 C11            1.4311    -4.7790    -0.0027 C.3     
  12 C12            1.2974    -6.1204     0.6709 C.ar    
  13 C13            2.2115    -6.5021     1.6358 C.ar    
  14 C14            2.0916    -7.7309     2.2549 C.ar    
  15 C15            1.0518    -8.5830     1.9081 C.ar    
  16 C16            0.1353    -8.1967     0.9393 C.ar    
  17 C17            0.2576    -6.9647     0.3271 C.ar    
  18 N18            0.9277    -9.8309     2.5344 N.pl3   
  19 N19            1.9395   -10.7906     2.6678 N.2     
  20 C20            1.4454   -11.8197     3.3080 C.2     
  21 C21            0.1046   -11.5496     3.6029 C.2     
  22 C22           -0.1881   -10.3191     3.1219 C.2     
  23 C23           -0.8443   -12.4650     4.3328 C.3     
  24 F24           -0.1790   -13.6456     4.6800 F       
  25 F25           -1.3049   -11.8311     5.4918 F       
  26 F26           -1.9300   -12.7679     3.5041 F       
  27 C27           -0.9948    -9.1186     0.5599 C.3     
  28 C28            3.0888    -8.1466     3.3056 C.3     
  29 C29            2.0882    -4.9594    -1.3726 C.3     
  30 C30            2.1450    -3.6110    -2.1117 C.3     
  31 C31            3.6367    -3.3089    -2.3633 C.3     
  32 C32            4.3170    -4.7000    -2.3297 C.3     
  33 C33            3.5474    -5.4296    -1.2008 C.3     
  34 H34            0.0017    -2.8044     4.1400 H       
  35 H35            1.0716    -4.0052     2.2718 H       
  36 H36           -3.1989    -1.7520     1.4689 H       
  37 H37           -0.3575    -4.2603    -1.0227 H       
  38 H38            2.0474    -4.1233     0.6124 H       
  39 H39            3.0202    -5.8389     1.9052 H       
  40 H40           -0.4571    -6.6621    -0.4239 H       
  41 H41            1.9805   -12.7222     3.5640 H       
  42 H42           -1.1422    -9.8180     3.1924 H       
  43 H43           -1.8224    -8.9847     1.2564 H       
  44 H44           -1.3295    -8.8861    -0.4511 H       
  45 H45           -0.6499   -10.1518     0.5998 H       
  46 H46            2.6958    -7.9083     4.2940 H       
  47 H47            3.2659    -9.2197     3.2341 H       
  48 H48            4.0259    -7.6124     3.1487 H       
  49 H49            1.5283    -5.6852    -1.9623 H       
  50 H50            1.6133    -3.6826    -3.0605 H       
  51 H51            1.7044    -2.8281    -1.4945 H       
  52 H52            3.7720    -2.8415    -3.3386 H       
  53 H53            4.0349    -2.6704    -1.5747 H       
  54 H54            4.1881    -5.2160    -3.2811 H       
  55 H55            5.3738    -4.6073    -2.0794 H       
  56 H56            3.9312    -5.1336    -0.2245 H       
  57 H57            3.6176    -6.5099    -1.3278 H       
@<TRIPOS>BOND
   1    1    2 1
   2    1    8 ar
   3    1    9 ar
   4    2    3 ar
   5    2    7 ar
   6    3    4 ar
   7    3   34 1
   8    4    5 ar
   9    4   35 1
  10    5    6 ar
  11    5   10 1
  12    6    7 ar
  13    7   36 1
  14   10   11 1
  15   10   37 1
  16   11   12 1
  17   11   29 1
  18   11   38 1
  19   12   13 ar
  20   12   17 ar
  21   13   14 ar
  22   13   39 1
  23   14   15 ar
  24   14   28 1
  25   15   16 ar
  26   15   18 1
  27   16   17 ar
  28   16   27 1
  29   17   40 1
  30   18   19 1
  31   18   22 1
  32   19   20 2
  33   20   21 1
  34   20   41 1
  35   21   22 2
  36   21   23 1
  37   22   42 1
  38   23   24 1
  39   23   25 1
  40   23   26 1
  41   27   43 1
  42   27   44 1
  43   27   45 1
  44   28   46 1
  45   28   47 1
  46   28   48 1
  47   29   30 1
  48   29   33 1
  49   29   49 1
  50   30   31 1
  51   30   50 1
  52   30   51 1
  53   31   32 1
  54   31   52 1
  55   31   53 1
  56   32   33 1
  57   32   54 1
  58   32   55 1
  59   33   56 1
  60   33   57 1

#	End of record

