#	Name: ASD01870525
#	Creating user name:	WinNT
#	Creation time:	15. 06. 2019 19:39

#	Modifying user name:	WinNT
#	Modification time:	15. 06. 2019 19:39

#	Program:	/corina/corina34_cracker 3.40 0067  02.08.2006

@<TRIPOS>MOLECULE
ASD01870525
  38   41    0    0    0
SMALL
NO_CHARGES


@<TRIPOS>ATOM
   1 C1            -0.0211     1.3155     0.1369 C.ar    
   2 C2             0.0069    -0.0683     0.1526 C.ar    
   3 N3             1.1466    -0.7324     0.1337 N.ar    
   4 C4             2.3091    -0.1087     0.0987 C.ar    
   5 C5             2.3604     1.2975     0.0804 C.ar    
   6 C6             1.1747     2.0218     0.1001 C.ar    
   7 C7             3.7219    -0.5612     0.0707 C.2     
   8 N8             4.5183     0.5223     0.0388 N.am    
   9 C9             3.7931     1.6554     0.0422 C.2     
  10 O10            4.2412     2.7838     0.0175 O.2     
  11 O11            4.0964    -1.7160     0.0759 O.2     
  12 C12            5.9200     0.4768     0.0069 C.ar    
  13 C13            6.5745    -0.7472     0.0066 C.ar    
  14 C14            7.9546    -0.7935    -0.0248 C.ar    
  15 C15            8.6882     0.3842    -0.0555 C.ar    
  16 C16            8.0330     1.6114    -0.0552 C.ar    
  17 C17            6.6520     1.6563    -0.0300 C.ar    
  18 F18            8.7461     2.7584    -0.0851 F       
  19 N19           10.0882     0.3372    -0.0864 N.am    
  20 C20           10.7152    -0.7441    -0.5903 C.2     
  21 C21           12.1832    -0.7575    -0.7041 C.2     
  22 O22           10.0684    -1.7092    -0.9511 O.2     
  23 C23           12.8768    -1.8072    -1.1995 C.2     
  24 S24           14.5443    -1.4329    -1.1640 S.3     
  25 C25           14.2198     0.1024    -0.4902 C.2     
  26 N26           12.9538     0.2683    -0.3329 N.2     
  27 C27           12.2778    -3.0962    -1.7005 C.3     
  28 H28           -0.9643     1.8415     0.1487 H       
  29 H29           -0.9236    -0.6157     0.1812 H       
  30 H30            1.1825     3.1017     0.0865 H       
  31 H31            6.0043    -1.6641     0.0312 H       
  32 H32            8.4629    -1.7463    -0.0251 H       
  33 H33            6.1424     2.6085    -0.0300 H       
  34 H34           10.6061     1.0830     0.2549 H       
  35 H35           14.9722     0.8352    -0.2386 H       
  36 H36           12.0635    -3.0075    -2.7655 H       
  37 H37           12.9828    -3.9116    -1.5384 H       
  38 H38           11.3539    -3.3018    -1.1599 H       
@<TRIPOS>BOND
   1    1    2 ar
   2    1    6 ar
   3    1   28 1
   4    2    3 ar
   5    2   29 1
   6    3    4 ar
   7    4    5 ar
   8    4    7 1
   9    5    6 ar
  10    5    9 1
  11    6   30 1
  12    7    8 am
  13    7   11 2
  14    8    9 am
  15    8   12 1
  16    9   10 2
  17   12   13 ar
  18   12   17 ar
  19   13   14 ar
  20   13   31 1
  21   14   15 ar
  22   14   32 1
  23   15   16 ar
  24   15   19 1
  25   16   17 ar
  26   16   18 1
  27   17   33 1
  28   19   20 am
  29   19   34 1
  30   20   21 1
  31   20   22 2
  32   21   23 2
  33   21   26 1
  34   23   24 1
  35   23   27 1
  36   24   25 1
  37   25   26 2
  38   25   35 1
  39   27   36 1
  40   27   37 1
  41   27   38 1

#	End of record

