#	Name: ASD01812695
#	Creating user name:	WinNT
#	Creation time:	15. 06. 2019 19:29

#	Modifying user name:	WinNT
#	Modification time:	15. 06. 2019 19:29

#	Program:	/corina/corina34_cracker 3.40 0067  02.08.2006

@<TRIPOS>MOLECULE
ASD01812695
  53   57    0    0    0
SMALL
NO_CHARGES


@<TRIPOS>ATOM
   1 O1             0.4012     0.2264     0.1145 O.3     
   2 C2             0.1116    -1.0932    -0.0057 C.ar    
   3 C3             1.1342    -2.0254    -0.1010 C.ar    
   4 C4             0.8413    -3.3694    -0.2229 C.ar    
   5 C5            -0.4768    -3.7982    -0.2511 C.ar    
   6 C6            -1.5008    -2.8863    -0.1581 C.ar    
   7 C7            -1.2230    -1.5225    -0.0283 C.ar    
   8 C8            -3.0036    -3.0163    -0.1575 C.3     
   9 N9            -3.5324    -1.6537    -0.0269 N.am    
  10 C10           -2.5006    -0.7960     0.0565 C.2     
  11 C11           -4.9506    -1.2893     0.0183 C.3     
  12 O12           -2.6074     0.4097     0.1714 O.2     
  13 C13           -5.4255    -1.2955     1.4485 C.ar    
  14 C14           -5.3420    -0.1414     2.2070 C.ar    
  15 C15           -5.7750    -0.1404     3.5169 C.ar    
  16 C16           -6.2986    -1.3068     4.0764 C.ar    
  17 C17           -6.3804    -2.4675     3.3058 C.ar    
  18 C18           -5.9484    -2.4538     1.9956 C.ar    
  19 C19            1.7081     0.5926     0.1374 C.ar    
  20 C20            2.3755     0.8946    -1.0569 C.ar    
  21 C21            3.7210     1.2708    -1.0206 C.ar    
  22 C22            4.3828     1.3428     0.1860 C.ar    
  23 C23            3.7210     1.0433     1.3655 C.ar    
  24 C24            2.3884     0.6752     1.3453 C.ar    
  25 F25            1.7492     0.3904     2.5009 F       
  26 C26            1.6830     0.8176    -2.3079 C.1     
  27 N27            1.1336     0.7566    -3.3004 N.1     
  28 C28           -6.7641    -1.3130     5.4799 C.2     
  29 N29           -6.3953    -0.4238     6.4566 N.pl3   
  30 C30           -7.0350    -0.7579     7.6130 C.2     
  31 C31           -7.8018    -1.8449     7.3795 C.2     
  32 C32           -7.6399    -2.1996     6.0303 C.2     
  33 C33           -5.4682     0.6976     6.2858 C.3     
  34 H34            2.1634    -1.6988    -0.0801 H       
  35 H35            1.6427    -4.0896    -0.2970 H       
  36 H36           -0.6993    -4.8507    -0.3466 H       
  37 H37           -3.3416    -3.4613    -1.0933 H       
  38 H38           -3.3267    -3.6260     0.6863 H       
  39 H39           -5.0836    -0.2935    -0.4044 H       
  40 H40           -5.5294    -2.0097    -0.5598 H       
  41 H41           -4.9367     0.7606     1.7727 H       
  42 H42           -5.7086     0.7610     4.1081 H       
  43 H43           -6.7842    -3.3734     3.7330 H       
  44 H44           -6.0146    -3.3503     1.3970 H       
  45 H45            4.2417     1.5046    -1.9375 H       
  46 H46            5.4225     1.6337     0.2120 H       
  47 H47            4.2478     1.1017     2.3065 H       
  48 H48           -6.9440    -0.2407     8.5566 H       
  49 H49           -8.4291    -2.3488     8.0999 H       
  50 H50           -8.1192    -3.0240     5.5235 H       
  51 H51           -6.0072     1.5571     5.8870 H       
  52 H52           -5.0315     0.9581     7.2499 H       
  53 H53           -4.6763     0.4122     5.5934 H       
@<TRIPOS>BOND
   1    1    2 1
   2    1   19 1
   3    2    3 ar
   4    2    7 ar
   5    3    4 ar
   6    3   34 1
   7    4    5 ar
   8    4   35 1
   9    5    6 ar
  10    5   36 1
  11    6    8 1
  12    6    7 ar
  13    7   10 1
  14    8    9 1
  15    8   37 1
  16    8   38 1
  17    9   10 am
  18    9   11 1
  19   10   12 2
  20   11   13 1
  21   11   39 1
  22   11   40 1
  23   13   14 ar
  24   13   18 ar
  25   14   15 ar
  26   14   41 1
  27   15   16 ar
  28   15   42 1
  29   16   17 ar
  30   16   28 1
  31   17   18 ar
  32   17   43 1
  33   18   44 1
  34   19   20 ar
  35   19   24 ar
  36   20   21 ar
  37   20   26 1
  38   21   22 ar
  39   21   45 1
  40   22   23 ar
  41   22   46 1
  42   23   24 ar
  43   23   47 1
  44   24   25 1
  45   26   27 3
  46   28   29 1
  47   28   32 2
  48   29   30 1
  49   29   33 1
  50   30   31 2
  51   30   48 1
  52   31   32 1
  53   31   49 1
  54   32   50 1
  55   33   51 1
  56   33   52 1
  57   33   53 1

#	End of record

