#	Name: ASD01810525
#	Creating user name:	WinNT
#	Creation time:	15. 06. 2019 19:24

#	Modifying user name:	WinNT
#	Modification time:	15. 06. 2019 19:24

#	Program:	/corina/corina34_cracker 3.40 0067  02.08.2006

@<TRIPOS>MOLECULE
ASD01810525
  89   94    0    0    0
SMALL
NO_CHARGES


@<TRIPOS>ATOM
   1 S1             1.4169     1.7859    -2.8890 S.3     
   2 C2             2.0775     0.6492    -1.6125 C.3     
   3 N3             1.0421    -0.3780    -1.4954 N.am    
   4 C4            -0.1588    -0.1079    -1.9992 C.2     
   5 C5            -0.3262     1.2531    -2.6466 C.3     
   6 C6             3.3963     0.0519    -2.0869 C.3     
   7 C7             3.9721    -0.8446    -0.9863 C.3     
   8 N8             4.1563    -0.0564     0.2391 N.3     
   9 C9             2.8758     0.4582     0.7411 C.3     
  10 C10            2.2617     1.3996    -0.2996 C.3     
  11 C11           -1.0505     1.1323    -3.9889 C.3     
  12 C12           -1.3129     2.5296    -4.5543 C.3     
  13 O13           -1.0699    -0.9065    -1.9442 O.2     
  14 C14            1.3188    -1.6610    -0.8446 C.3     
  15 C15            3.2038    -6.2402    -1.5131 C.3     
  16 O16            3.7033    -7.1667    -2.4796 O.3     
  17 C17            4.1115    -8.3783    -2.0193 C.ar    
  18 C18            4.5983    -9.3041    -2.8979 C.ar    
  19 C19            4.0332    -8.6590    -0.6519 C.ar    
  20 C20            4.4340    -9.8625    -0.1611 C.ar    
  21 C21            4.9347   -10.8408    -1.0372 C.ar    
  22 C22            5.0204   -10.5565    -2.4235 C.ar    
  23 C23            5.3571   -12.0949    -0.5642 C.ar    
  24 C24            5.8364   -13.0191    -1.4409 C.ar    
  25 C25            5.9160   -12.7416    -2.8044 C.ar    
  26 C26            5.5211   -11.5365    -3.2983 C.ar    
  27 C27            6.2883   -14.3627    -0.9295 C.3     
  28 N28            5.1304   -15.2510    -0.8010 N.pl3   
  29 C29            4.4841   -15.3209     0.4149 C.ar    
  30 C30            3.3702   -16.1606     0.5780 C.ar    
  31 C31            2.9121   -16.9591    -0.5743 C.2     
  32 C32            3.6644   -16.8183    -1.8314 C.2     
  33 C33            4.7418   -15.9560    -1.8707 C.2     
  34 C34            4.9270   -14.5607     1.4974 C.ar    
  35 C35            4.2717   -14.6405     2.7082 C.ar    
  36 C36            3.1716   -15.4718     2.8650 C.ar    
  37 C37            2.7179   -16.2308     1.8094 C.ar    
  38 F38            5.9971   -13.7476     1.3599 F       
  39 O39            1.9517   -17.7042    -0.4890 O.2     
  40 C40            3.2723   -17.5792    -3.0261 C.2     
  41 O41            2.2156   -18.4148    -2.9763 O.3     
  42 O42            3.9009   -17.4551    -4.0592 O.2     
  43 C43            5.2440     0.0770     2.4292 C.3     
  44 C44            4.8492    -0.8404     1.2702 C.3     
  45 C45            1.8536    -2.6530    -1.8794 C.3     
  46 C46            2.2613    -3.9506    -1.1788 C.3     
  47 C47            2.7961    -4.9426    -2.2136 C.3     
  48 H48           -0.8521     1.9374    -1.9809 H       
  49 H49            3.2249    -0.5402    -2.9858 H       
  50 H50            4.1003     0.8542    -2.3080 H       
  51 H51            3.2837    -1.6665    -0.7898 H       
  52 H52            4.9333    -1.2446    -1.3092 H       
  53 H53            2.1962    -0.3742     0.9240 H       
  54 H54            3.0421     1.0027     1.6705 H       
  55 H55            2.9249     2.2503    -0.4568 H       
  56 H56            1.2939     1.7533     0.0560 H       
  57 H57           -0.4311     0.5686    -4.6865 H       
  58 H58           -1.9988     0.6147    -3.8448 H       
  59 H59           -1.8289     2.4436    -5.5105 H       
  60 H60           -1.9323     3.0934    -3.8566 H       
  61 H61           -0.3646     3.0473    -4.6984 H       
  62 H62            2.0623    -1.5177    -0.0605 H       
  63 H63            0.4003    -2.0521    -0.4072 H       
  64 H64            2.3368    -6.6703    -1.0117 H       
  65 H65            3.9803    -6.0279    -0.7782 H       
  66 H66            4.6578    -9.0743    -3.9515 H       
  67 H67            3.6493    -7.9094     0.0243 H       
  68 H68            4.3682   -10.0654     0.8977 H       
  69 H69            5.3020   -12.3241     0.4897 H       
  70 H70            6.3006   -13.4926    -3.4786 H       
  71 H71            5.5885   -11.3355    -4.3573 H       
  72 H72            7.0029   -14.7962    -1.6292 H       
  73 H73            6.7621   -14.2402     0.0445 H       
  74 H74            5.2941   -15.8523    -2.7930 H       
  75 H75            4.6184   -14.0499     3.5433 H       
  76 H76            2.6690   -15.5238     3.8195 H       
  77 H77            1.8611   -16.8765     1.9338 H       
  78 H78            1.9960   -18.8937    -3.7872 H       
  79 H79            5.7581    -0.5047     3.1942 H       
  80 H80            5.9065     0.8610     2.0625 H       
  81 H81            4.3486     0.5285     2.8565 H       
  82 H82            4.1866    -1.6244     1.6369 H       
  83 H83            5.7446    -1.2919     0.8429 H       
  84 H84            1.0772    -2.8653    -2.6143 H       
  85 H85            2.7206    -2.2229    -2.3808 H       
  86 H86            3.0378    -3.7383    -0.4439 H       
  87 H87            1.3943    -4.3807    -0.6774 H       
  88 H88            3.6631    -4.5125    -2.7151 H       
  89 H89            2.0197    -5.1549    -2.9486 H       
@<TRIPOS>BOND
   1    1    2 1
   2    1    5 1
   3    2    3 1
   4    2    6 1
   5    2   10 1
   6    3    4 am
   7    3   14 1
   8    4    5 1
   9    4   13 2
  10    5   11 1
  11    5   48 1
  12    6    7 1
  13    6   49 1
  14    6   50 1
  15    7    8 1
  16    7   51 1
  17    7   52 1
  18    8   44 1
  19    8    9 1
  20    9   10 1
  21    9   53 1
  22    9   54 1
  23   10   55 1
  24   10   56 1
  25   11   12 1
  26   11   57 1
  27   11   58 1
  28   12   59 1
  29   12   60 1
  30   12   61 1
  31   14   45 1
  32   14   62 1
  33   14   63 1
  34   15   47 1
  35   15   16 1
  36   15   64 1
  37   15   65 1
  38   16   17 1
  39   17   18 ar
  40   17   19 ar
  41   18   22 ar
  42   18   66 1
  43   19   20 ar
  44   19   67 1
  45   20   21 ar
  46   20   68 1
  47   21   22 ar
  48   21   23 ar
  49   22   26 ar
  50   23   24 ar
  51   23   69 1
  52   24   25 ar
  53   24   27 1
  54   25   26 ar
  55   25   70 1
  56   26   71 1
  57   27   28 1
  58   27   72 1
  59   27   73 1
  60   28   29 1
  61   28   33 1
  62   29   30 ar
  63   29   34 ar
  64   30   31 1
  65   30   37 ar
  66   31   32 1
  67   31   39 2
  68   32   33 2
  69   32   40 1
  70   33   74 1
  71   34   35 ar
  72   34   38 1
  73   35   36 ar
  74   35   75 1
  75   36   37 ar
  76   36   76 1
  77   37   77 1
  78   40   41 1
  79   40   42 2
  80   41   78 1
  81   43   44 1
  82   43   79 1
  83   43   80 1
  84   43   81 1
  85   44   82 1
  86   44   83 1
  87   45   46 1
  88   45   84 1
  89   45   85 1
  90   46   47 1
  91   46   86 1
  92   46   87 1
  93   47   88 1
  94   47   89 1

#	End of record

