#	Name: ASD01881247
#	Creating user name:	WinNT
#	Creation time:	15. 06. 2019 19:42

#	Modifying user name:	WinNT
#	Modification time:	15. 06. 2019 19:42

#	Program:	/corina/corina34_cracker 3.40 0067  02.08.2006

@<TRIPOS>MOLECULE
ASD01881247
  38   40    0    0    0
SMALL
NO_CHARGES


@<TRIPOS>ATOM
   1 N1            -0.0158     1.3137     0.0093 N.ar    
   2 C2             0.0021    -0.0041     0.0020 C.ar    
   3 N3             1.1316    -0.6829    -0.0120 N.ar    
   4 C4             2.2996    -0.0575    -0.0198 C.ar    
   5 C5             2.3220     1.3293    -0.0130 C.ar    
   6 C6             1.1125     2.0081     0.0022 C.ar    
   7 C7             3.6285     2.0803    -0.0209 C.3     
   8 O8             4.0294     2.3244    -1.3706 O.3     
   9 Cl9            1.0776     3.7437     0.0108 Cl      
  10 C10            5.1943     2.9957    -1.5555 C.ar    
  11 C11            5.6432     3.2669    -2.8444 C.ar    
  12 C12            6.8215     3.9464    -3.0301 C.ar    
  13 C13            7.5756     4.3691    -1.9303 C.ar    
  14 C14            7.1199     4.0946    -0.6380 C.ar    
  15 C15            5.9348     3.4168    -0.4574 C.ar    
  16 C16            7.5743     4.3917    -4.2590 C.3     
  17 N17            8.7774     5.0789    -3.7759 N.am    
  18 C18            8.7741     5.0635    -2.4319 C.2     
  19 O19            9.6375     5.5535    -1.7299 O.2     
  20 C20           -1.3045    -0.7550     0.0105 C.3     
  21 Cl21           3.7816    -0.9614    -0.0376 Cl      
  22 C22            9.4533     7.1424    -4.9012 C.3     
  23 C23            9.8121     5.6820    -4.6196 C.3     
  24 H24            3.5047     3.0303     0.4988 H       
  25 H25            4.3916     1.4871     0.4831 H       
  26 H26            5.0657     2.9429    -3.6975 H       
  27 H27            7.6948     4.4162     0.2179 H       
  28 H28            5.5830     3.2052     0.5415 H       
  29 H29            7.8530     3.5272    -4.8614 H       
  30 H30            6.9620     5.0764    -4.8459 H       
  31 H31           -1.6293    -0.9305    -1.0151 H       
  32 H32           -1.1711    -1.7104     0.5179 H       
  33 H33           -2.0580    -0.1672     0.5347 H       
  34 H34            8.4932     7.1880    -5.4152 H       
  35 H35            9.3879     7.6885    -3.9602 H       
  36 H36           10.2232     7.5911    -5.5290 H       
  37 H37           10.7722     5.6364    -4.1056 H       
  38 H38            9.8775     5.1359    -5.5606 H       
@<TRIPOS>BOND
   1    1    2 ar
   2    1    6 ar
   3    2    3 ar
   4    2   20 1
   5    3    4 ar
   6    4    5 ar
   7    4   21 1
   8    5    6 ar
   9    5    7 1
  10    6    9 1
  11    7    8 1
  12    7   24 1
  13    7   25 1
  14    8   10 1
  15   10   11 ar
  16   10   15 ar
  17   11   12 ar
  18   11   26 1
  19   12   13 ar
  20   12   16 1
  21   13   14 ar
  22   13   18 1
  23   14   15 ar
  24   14   27 1
  25   15   28 1
  26   16   17 1
  27   16   29 1
  28   16   30 1
  29   17   18 am
  30   17   23 1
  31   18   19 2
  32   20   31 1
  33   20   32 1
  34   20   33 1
  35   22   23 1
  36   22   34 1
  37   22   35 1
  38   22   36 1
  39   23   37 1
  40   23   38 1

#	End of record

