#	Name: ASD01916979
#	Creating user name:	WinNT
#	Creation time:	15. 06. 2019 20:08

#	Modifying user name:	WinNT
#	Modification time:	15. 06. 2019 20:08

#	Program:	/corina/corina34_cracker 3.40 0067  02.08.2006

@<TRIPOS>MOLECULE
ASD01916979
  68   72    0    0    0
SMALL
NO_CHARGES


@<TRIPOS>ATOM
   1 C1            -0.0105     1.3723     0.1492 C.ar    
   2 C2             0.0139     0.0120     0.4151 C.ar    
   3 C3             1.2309    -0.6481     0.5674 C.ar    
   4 C4             2.4168     0.0541     0.4533 C.ar    
   5 C5             2.3910     1.4219     0.1859 C.ar    
   6 C6             1.1709     2.0771     0.0345 C.ar    
   7 C7             3.6612     2.1791     0.0632 C.2     
   8 N8             4.8888     1.6629     0.1877 N.2     
   9 N9             3.7626     3.4661    -0.1913 N.2     
  10 N10            5.1333     3.7695    -0.2221 N.pl3   
  11 C11            5.7875     2.6099     0.0200 C.2     
  12 C12            7.2558     2.4369     0.0853 C.ar    
  13 C13            5.7361     5.0814    -0.4706 C.3     
  14 C14            5.8668     5.8290     0.8313 C.2     
  15 O15            5.4932     5.3164     1.8651 O.2     
  16 N16            6.3988     7.0672     0.8469 N.am    
  17 C17            6.5355     7.8143     2.1065 C.3     
  18 C18            7.9791     8.3154     2.2210 C.3     
  19 N19            8.3297     9.0697     1.0102 N.3     
  20 C20            8.2889     8.2125    -0.1821 C.3     
  21 C21            6.8636     7.7048    -0.3943 C.3     
  22 C22            9.5726     9.6775     1.1445 C.ar    
  23 C23            7.8196     1.1711    -0.0752 C.ar    
  24 C24           10.0795    10.4445     0.1022 C.ar    
  25 N25           10.2597     9.5243     2.2669 N.ar    
  26 C26           11.4460    10.0860     2.4345 C.ar    
  27 C27           12.0121    10.8602     1.4314 C.ar    
  28 C28           11.3187    11.0459     0.2459 C.ar    
  29 O29           -1.1518    -0.6786     0.5278 O.3     
  30 C30           -2.3630     0.0611     0.3605 C.3     
  31 C31            9.1894     1.0163    -0.0138 C.ar    
  32 C32           10.0031     2.1132     0.2068 C.ar    
  33 C33            9.4499     3.3711     0.3667 C.ar    
  34 C34            8.0820     3.5398     0.3017 C.ar    
  35 O35            1.2529    -1.9826     0.8287 O.3     
  36 C36            2.5363    -2.5943     0.9729 C.3     
  37 O37           12.1161     9.9035     3.6000 O.3     
  38 C38           11.4809     9.0969     4.5941 C.3     
  39 H39           -0.9555     1.8808     0.0270 H       
  40 H40            3.3612    -0.4563     0.5716 H       
  41 H41            1.1494     3.1368    -0.1727 H       
  42 H42            6.7228     4.9497    -0.9146 H       
  43 H43            5.1033     5.6485    -1.1533 H       
  44 H44            5.8522     8.6635     2.1045 H       
  45 H45            6.3074     7.1592     2.9473 H       
  46 H46            8.0711     8.9634     3.0927 H       
  47 H47            8.6521     7.4645     2.3272 H       
  48 H48            8.6057     8.7860    -1.0533 H       
  49 H49            8.9576     7.3631    -0.0425 H       
  50 H50            6.8507     6.9793    -1.2076 H       
  51 H51            6.2089     8.5420    -0.6363 H       
  52 H52            7.1854     0.3139    -0.2468 H       
  53 H53            9.5138    10.5697    -0.8092 H       
  54 H54           12.9804    11.3165     1.5748 H       
  55 H55           11.7373    11.6439    -0.5501 H       
  56 H56           -3.2160    -0.6078     0.4748 H       
  57 H57           -2.4149     0.8481     1.1128 H       
  58 H58           -2.3818     0.5072    -0.6339 H       
  59 H59            9.6271     0.0369    -0.1378 H       
  60 H60           11.0746     1.9869     0.2548 H       
  61 H61           10.0904     4.2235     0.5390 H       
  62 H62            7.6514     4.5223     0.4267 H       
  63 H63            3.1051    -2.4668     0.0519 H       
  64 H64            3.0716    -2.1253     1.7985 H       
  65 H65            2.4110    -3.6574     1.1783 H       
  66 H66           12.1218     9.0323     5.4734 H       
  67 H67           10.5274     9.5462     4.8717 H       
  68 H68           11.3092     8.0971     4.1953 H       
@<TRIPOS>BOND
   1    1    2 ar
   2    1    6 ar
   3    1   39 1
   4    2    3 ar
   5    2   29 1
   6    3    4 ar
   7    3   35 1
   8    4    5 ar
   9    4   40 1
  10    5    6 ar
  11    5    7 1
  12    6   41 1
  13    7    8 1
  14    7    9 2
  15    8   11 2
  16    9   10 1
  17   10   11 1
  18   10   13 1
  19   11   12 1
  20   12   23 ar
  21   12   34 ar
  22   13   14 1
  23   13   42 1
  24   13   43 1
  25   14   15 2
  26   14   16 am
  27   16   17 1
  28   16   21 1
  29   17   18 1
  30   17   44 1
  31   17   45 1
  32   18   19 1
  33   18   46 1
  34   18   47 1
  35   19   20 1
  36   19   22 1
  37   20   21 1
  38   20   48 1
  39   20   49 1
  40   21   50 1
  41   21   51 1
  42   22   25 ar
  43   22   24 ar
  44   23   31 ar
  45   23   52 1
  46   24   28 ar
  47   24   53 1
  48   25   26 ar
  49   26   27 ar
  50   26   37 1
  51   27   28 ar
  52   27   54 1
  53   28   55 1
  54   29   30 1
  55   30   56 1
  56   30   57 1
  57   30   58 1
  58   31   32 ar
  59   31   59 1
  60   32   33 ar
  61   32   60 1
  62   33   34 ar
  63   33   61 1
  64   34   62 1
  65   35   36 1
  66   36   63 1
  67   36   64 1
  68   36   65 1
  69   37   38 1
  70   38   66 1
  71   38   67 1
  72   38   68 1

#	End of record

