#	Name: ASD01813698
#	Creating user name:	WinNT
#	Creation time:	15. 06. 2019 19:30

#	Modifying user name:	WinNT
#	Modification time:	15. 06. 2019 19:30

#	Program:	/corina/corina34_cracker 3.40 0067  02.08.2006

@<TRIPOS>MOLECULE
ASD01813698
  53   57    0    0    0
SMALL
NO_CHARGES


@<TRIPOS>ATOM
   1 O1            -0.0173     1.4248     0.0099 O.3     
   2 C2             0.0021    -0.0041     0.0020 C.3     
   3 H3             0.5121    -0.3565    -0.8945 H       
   4 C4             0.7396    -0.5125     1.2435 C.3     
   5 O5             0.7074    -1.9411     1.2633 O.3     
   6 C6            -0.6087    -2.4942     1.3259 C.3     
   7 C7            -1.4004    -2.0654     0.0877 C.3     
   8 C8            -1.4345    -0.5356     0.0160 C.3     
   9 H9            -1.9603    -0.1423     0.8861 H       
  10 N10           -2.1241    -0.1162    -1.2065 N.am    
  11 C11           -3.4675    -0.0083    -1.2192 C.2     
  12 O12           -4.1068    -0.2590    -0.2164 O.2     
  13 C13           -4.1644     0.4155    -2.4546 C.ar    
  14 C14           -5.5574     0.5290    -2.4532 C.ar    
  15 C15           -6.1995     0.9248    -3.6077 C.ar    
  16 C16           -7.7001     1.0589    -3.6442 C.3     
  17 C17           -8.3054    -0.2142    -4.1770 C.ar    
  18 C18           -8.5113    -0.3642    -5.5361 C.ar    
  19 C19           -9.0663    -1.5297    -6.0274 C.ar    
  20 C20           -9.4172    -2.5513    -5.1551 C.ar    
  21 C21           -9.2088    -2.3978    -3.7911 C.ar    
  22 C22           -8.6486    -1.2321    -3.3063 C.ar    
  23 N23           -9.9811    -3.7352    -5.6506 N.pl3   
  24 C24          -10.3709    -4.8002    -4.9141 C.2     
  25 C25          -10.8612    -5.7316    -5.7644 C.2     
  26 C26          -10.7686    -5.2202    -7.0635 C.2     
  27 N27          -10.2463    -4.0221    -6.9959 N.2     
  28 C28           -5.4314     1.1999    -4.7445 C.ar    
  29 S29           -5.9112     1.7185    -6.3545 S.3     
  30 C30           -4.2498     1.7487    -6.9128 C.2     
  31 C31           -3.4125     1.3957    -5.9570 C.2     
  32 C32           -4.0359     1.0682    -4.6853 C.ar    
  33 N33           -3.4597     0.6849    -3.5370 N.ar    
  34 H34            0.8606     1.8301     0.0037 H       
  35 H35            1.7748    -0.1726     1.2160 H       
  36 H36            0.2534    -0.1256     2.1390 H       
  37 H37           -0.5448    -3.5819     1.3577 H       
  38 H38           -1.1125    -2.1332     2.2225 H       
  39 H39           -0.9193    -2.4604    -0.8071 H       
  40 H40           -2.4182    -2.4497     0.1550 H       
  41 H41           -1.6139     0.0839    -2.0069 H       
  42 H42           -6.1235     0.3094    -1.5600 H       
  43 H43           -8.0729     1.2448    -2.6370 H       
  44 H44           -7.9748     1.8910    -4.2926 H       
  45 H45           -8.2382     0.4308    -6.2142 H       
  46 H46           -9.2276    -1.6461    -7.0889 H       
  47 H47           -9.4810    -3.1907    -3.1101 H       
  48 H48           -8.4822    -1.1139    -2.2458 H       
  49 H49          -10.3027    -4.8912    -3.8401 H       
  50 H50          -11.2546    -6.6990    -5.4890 H       
  51 H51          -11.0785    -5.7255    -7.9663 H       
  52 H52           -3.9496     2.0221    -7.9136 H       
  53 H53           -2.3439     1.3528    -6.1078 H       
@<TRIPOS>BOND
   1    1    2 1
   2    1   34 1
   3    2    3 1
   4    2    8 1
   5    2    4 1
   6    4    5 1
   7    4   35 1
   8    4   36 1
   9    5    6 1
  10    6    7 1
  11    6   37 1
  12    6   38 1
  13    7    8 1
  14    7   39 1
  15    7   40 1
  16    8    9 1
  17    8   10 1
  18   10   11 am
  19   10   41 1
  20   11   12 2
  21   11   13 1
  22   13   33 ar
  23   13   14 ar
  24   14   15 ar
  25   14   42 1
  26   15   16 1
  27   15   28 ar
  28   16   17 1
  29   16   43 1
  30   16   44 1
  31   17   22 ar
  32   17   18 ar
  33   18   19 ar
  34   18   45 1
  35   19   20 ar
  36   19   46 1
  37   20   21 ar
  38   20   23 1
  39   21   22 ar
  40   21   47 1
  41   22   48 1
  42   23   27 1
  43   23   24 1
  44   24   25 2
  45   24   49 1
  46   25   26 1
  47   25   50 1
  48   26   27 2
  49   26   51 1
  50   28   32 ar
  51   28   29 1
  52   29   30 1
  53   30   31 2
  54   30   52 1
  55   31   32 1
  56   31   53 1
  57   32   33 ar

#	End of record

