#	Name: ASD04230111
#	Creating user name:	WinNT
#	Creation time:	15. 06. 2019 20:48

#	Modifying user name:	WinNT
#	Modification time:	15. 06. 2019 20:48

#	Program:	/corina/corina34_cracker 3.40 0067  02.08.2006

@<TRIPOS>MOLECULE
ASD04230111
  51   54    0    0    0
SMALL
NO_CHARGES


@<TRIPOS>ATOM
   1 C1             1.5360     4.6862     1.7201 C.ar    
   2 C2             2.5439     5.3840     2.3698 C.ar    
   3 C3             3.8005     4.8590     2.4683 C.ar    
   4 C4             4.0825     3.6081     1.9004 C.ar    
   5 C5             3.0564     2.8818     1.2693 C.ar    
   6 C6             1.7832     3.4396     1.1729 C.ar    
   7 C7             5.3934     3.0678     1.9620 C.2     
   8 C8             5.6628     1.9284     1.2155 C.2     
   9 C9             4.5671     1.3877     0.3905 C.2     
  10 O10            3.2979     1.6423     0.7794 O.3     
  11 C11            6.9879     1.2871     1.2463 C.2     
  12 N12            7.2188     0.1818     0.5105 N.am    
  13 O13            7.8740     1.7548     1.9358 O.2     
  14 C14            8.5059    -0.3623     0.4510 C.ar    
  15 C15            8.6753    -1.7390     0.3688 C.ar    
  16 C16            9.9457    -2.2805     0.3097 C.ar    
  17 C17           11.0532    -1.4569     0.3320 C.ar    
  18 C18           10.8928    -0.0742     0.4139 C.ar    
  19 C19            9.6134     0.4724     0.4682 C.ar    
  20 C20           12.0818     0.8121     0.4381 C.ar    
  21 O21            4.7981     0.7333    -0.6091 O.2     
  22 C22           12.1759     1.9063    -0.4198 C.ar    
  23 N23           13.2525     2.6739    -0.3679 N.ar    
  24 C24           14.2333     2.4167     0.4825 C.ar    
  25 N25           14.1871     1.3890     1.3149 N.ar    
  26 C26           13.1406     0.5744     1.3305 C.ar    
  27 O27           13.0985    -0.4760     2.1846 O.3     
  28 C28           14.2215    -0.6539     3.0502 C.3     
  29 O29           15.3167     3.2292     0.5010 O.3     
  30 C30           15.3215     4.3251    -0.4160 C.3     
  31 O31            0.7869     2.7609     0.5439 O.3     
  32 C32           -0.4924     3.3949     0.4835 C.3     
  33 H33            0.5488     5.1178     1.6448 H       
  34 H34            2.3328     6.3513     2.8012 H       
  35 H35            4.5764     5.4065     2.9826 H       
  36 H36            6.1577     3.5287     2.5702 H       
  37 H37            6.4924    -0.2364     0.0223 H       
  38 H38            7.8121    -2.3878     0.3513 H       
  39 H39           10.0722    -3.3512     0.2462 H       
  40 H40           12.0443    -1.8836     0.2864 H       
  41 H41            9.4840     1.5427     0.5317 H       
  42 H42           11.3811     2.1246    -1.1178 H       
  43 H43           15.1215    -0.7983     2.4526 H       
  44 H44           14.3399     0.2293     3.6779 H       
  45 H45           14.0596    -1.5284     3.6803 H       
  46 H46           15.2574     3.9458    -1.4359 H       
  47 H47           14.4673     4.9714    -0.2144 H       
  48 H48           16.2436     4.8941    -0.2973 H       
  49 H49           -0.8555     3.5775     1.4949 H       
  50 H50           -0.4033     4.3429    -0.0472 H       
  51 H51           -1.1940     2.7481    -0.0432 H       
@<TRIPOS>BOND
   1    1    2 ar
   2    1    6 ar
   3    1   33 1
   4    2    3 ar
   5    2   34 1
   6    3    4 ar
   7    3   35 1
   8    4    5 ar
   9    4    7 1
  10    5    6 ar
  11    5   10 1
  12    6   31 1
  13    7    8 2
  14    7   36 1
  15    8    9 1
  16    8   11 1
  17    9   10 1
  18    9   21 2
  19   11   12 am
  20   11   13 2
  21   12   14 1
  22   12   37 1
  23   14   15 ar
  24   14   19 ar
  25   15   16 ar
  26   15   38 1
  27   16   17 ar
  28   16   39 1
  29   17   18 ar
  30   17   40 1
  31   18   19 ar
  32   18   20 1
  33   19   41 1
  34   20   22 ar
  35   20   26 ar
  36   22   23 ar
  37   22   42 1
  38   23   24 ar
  39   24   25 ar
  40   24   29 1
  41   25   26 ar
  42   26   27 1
  43   27   28 1
  44   28   43 1
  45   28   44 1
  46   28   45 1
  47   29   30 1
  48   30   46 1
  49   30   47 1
  50   30   48 1
  51   31   32 1
  52   32   49 1
  53   32   50 1
  54   32   51 1

#	End of record

