#	Name: ASD02038602
#	Creating user name:	WinNT
#	Creation time:	15. 06. 2019 20:17

#	Modifying user name:	WinNT
#	Modification time:	15. 06. 2019 20:17

#	Program:	/corina/corina34_cracker 3.40 0067  02.08.2006

@<TRIPOS>MOLECULE
ASD02038602
  46   47    0    0    0
SMALL
NO_CHARGES


@<TRIPOS>ATOM
   1 C1            -0.3867     1.0093     1.2530 C.ar    
   2 C2            -0.3907    -0.3737     1.1796 C.ar    
   3 C3            -1.5826    -1.0547     1.0181 C.ar    
   4 C4            -2.7767    -0.3502     0.9301 C.ar    
   5 C5            -2.7689     1.0376     1.0047 C.ar    
   6 C6            -1.5758     1.7125     1.1708 C.ar    
   7 S7            -4.2982    -1.2145     0.7236 S.3     
   8 C8            -5.5226     0.1227     0.6662 C.3     
   9 C9            -6.9204    -0.4730     0.4872 C.3     
  10 N10           -7.9119     0.6099     0.4407 N.3     
  11 C11           -9.2689     0.0742     0.2692 C.3     
  12 C12          -10.2715     1.2292     0.2254 C.3     
  13 O13          -10.0299     2.0258    -0.9361 O.3     
  14 C14          -10.8401     3.1014    -1.1265 C.ar    
  15 Cl15           1.1118     1.8618     1.4559 Cl      
  16 Cl16           1.1024    -1.2525     1.2898 Cl      
  17 C17          -10.6604     3.9172    -2.2338 C.ar    
  18 C18          -11.8493     3.3787    -0.2162 C.ar    
  19 C19          -12.6728     4.4706    -0.4090 C.ar    
  20 C20          -12.4900     5.2910    -1.5143 C.ar    
  21 C21          -11.4828     5.0096    -2.4279 C.ar    
  22 N22          -13.3240     6.3975    -1.7105 N.am    
  23 S23          -13.1264     7.7575    -0.7865 S.o2    
  24 C24          -11.4649     8.3523    -1.2061 C.3     
  25 O25          -14.1148     8.6565    -1.2702 O.2     
  26 O26          -13.1619     7.2803     0.5515 O.2     
  27 H27           -1.5855    -2.1331     0.9601 H       
  28 H28           -3.6959     1.5876     0.9364 H       
  29 H29           -1.5697     2.7909     1.2291 H       
  30 H30           -5.4856     0.6894     1.5966 H       
  31 H31           -5.2994     0.7840    -0.1711 H       
  32 H32           -6.9574    -1.0397    -0.4432 H       
  33 H33           -7.1435    -1.1342     1.3245 H       
  34 H34           -7.8534     1.1894     1.2647 H       
  35 H35           -9.3222    -0.4887    -0.6627 H       
  36 H36           -9.5084    -0.5833     1.1050 H       
  37 H37          -11.2848     0.8294     0.1875 H       
  38 H38          -10.1566     1.8440     1.1181 H       
  39 H39           -9.8770     3.6982    -2.9442 H       
  40 H40          -11.9913     2.7405     0.6433 H       
  41 H41          -13.4590     4.6859     0.2994 H       
  42 H42          -11.3399     5.6473    -3.2878 H       
  43 H43          -14.0178     6.3679    -2.3877 H       
  44 H44          -11.3896     8.4890    -2.2849 H       
  45 H45          -11.2823     9.3034    -0.7058 H       
  46 H46          -10.7243     7.6221    -0.8798 H       
@<TRIPOS>BOND
   1    1    2 ar
   2    1   15 1
   3    1    6 ar
   4    2    3 ar
   5    2   16 1
   6    3    4 ar
   7    3   27 1
   8    4    5 ar
   9    4    7 1
  10    5    6 ar
  11    5   28 1
  12    6   29 1
  13    7    8 1
  14    8    9 1
  15    8   30 1
  16    8   31 1
  17    9   10 1
  18    9   32 1
  19    9   33 1
  20   10   11 1
  21   10   34 1
  22   11   12 1
  23   11   35 1
  24   11   36 1
  25   12   13 1
  26   12   37 1
  27   12   38 1
  28   13   14 1
  29   14   17 ar
  30   14   18 ar
  31   17   21 ar
  32   17   39 1
  33   18   19 ar
  34   18   40 1
  35   19   20 ar
  36   19   41 1
  37   20   21 ar
  38   20   22 1
  39   21   42 1
  40   22   23 am
  41   22   43 1
  42   23   24 1
  43   23   25 2
  44   23   26 2
  45   24   44 1
  46   24   45 1
  47   24   46 1

#	End of record

