#	Name: ASD07300645
#	Creating user name:	WinNT
#	Creation time:	15. 06. 2019 21:10

#	Modifying user name:	WinNT
#	Modification time:	15. 06. 2019 21:10

#	Program:	/corina/corina34_cracker 3.40 0067  02.08.2006

@<TRIPOS>MOLECULE
ASD07300645
  17   18    0    0    0
SMALL
NO_CHARGES


@<TRIPOS>ATOM
   1 C1            -0.0171     1.4064     0.0098 C.2     
   2 C2             0.0021    -0.0041     0.0020 C.2     
   3 N3             1.1783     2.0841     0.0020 N.pl3   
   4 N4             1.1510    -0.6385    -0.0124 N.2     
   5 C5             2.3113     0.0241    -0.0199 C.2     
   6 C6             2.3475     1.3734    -0.0126 C.2     
   7 N7            -0.9929     2.2991     0.0291 N.2     
   8 C8            -0.4653     3.5239     0.0277 C.2     
   9 C9             0.8856     3.4125     0.0119 C.2     
  10 C10           -1.2411     4.8157     0.0454 C.3     
  11 I11            4.1087    -1.0518    -0.0428 I       
  12 Cl12          -1.4869    -0.8965     0.0120 Cl      
  13 Br13           2.1297     4.8366     0.0077 Br      
  14 H14            3.2959     1.8901    -0.0190 H       
  15 H15           -1.4129     5.1222     1.0772 H       
  16 H16           -0.6729     5.5879    -0.4732 H       
  17 H17           -2.1986     4.6714    -0.4550 H       
@<TRIPOS>BOND
   1    1    2 1
   2    1    3 1
   3    1    7 2
   4    2    4 2
   5    2   12 1
   6    3    6 1
   7    3    9 1
   8    4    5 1
   9    5    6 2
  10    5   11 1
  11    6   14 1
  12    7    8 1
  13    8    9 2
  14    8   10 1
  15    9   13 1
  16   10   15 1
  17   10   16 1
  18   10   17 1

#	End of record

