#	Name: ASD03092331
#	Creating user name:	WinNT
#	Creation time:	15. 06. 2019 20:32

#	Modifying user name:	WinNT
#	Modification time:	15. 06. 2019 20:32

#	Program:	/corina/corina34_cracker 3.40 0067  02.08.2006

@<TRIPOS>MOLECULE
ASD03092331
  56   58    0    0    0
SMALL
NO_CHARGES


@<TRIPOS>ATOM
   1 C1             0.3377     2.0153     0.1445 C.2     
   2 C2             0.5540     0.5261     0.2242 C.3     
   3 O3             1.2900     2.7644     0.0902 O.2     
   4 N4            -0.9141     2.5145     0.1278 N.am    
   5 O5             1.9556     0.2475     0.2210 O.3     
   6 C6             2.2718    -1.1442     0.2940 C.3     
   7 C7            -1.1244     3.9623     0.0503 C.3     
   8 S8            -4.9835     4.7562    -0.6387 S.3     
   9 C9            -4.5799     4.6083     1.0157 C.2     
  10 N10           -3.3134     4.3515     1.1494 N.2     
  11 C11           -2.6025     4.2557     0.0469 C.2     
  12 C12           -3.3091     4.4424    -1.0876 C.2     
  13 C13           -2.5485     5.3138    -4.6606 C.ar    
  14 C14           -3.0708     5.4006    -3.3883 C.ar    
  15 C15           -2.7735     4.3920    -2.4620 C.ar    
  16 C16           -1.9532     3.3345    -2.8772 C.ar    
  17 C17           -1.4749     3.3281    -4.1696 C.ar    
  18 N18           -1.7794     4.2994    -5.0103 N.ar    
  19 C19           -0.5917     2.1969    -4.6294 C.3     
  20 C20           -2.8652     6.3883    -5.6688 C.3     
  21 N21           -5.4737     4.7431     2.0624 N.3     
  22 C22           -6.8270     5.0318     1.5657 C.3     
  23 C23           -7.7695     5.2321     2.7555 C.3     
  24 O24           -7.7344     4.0684     3.5861 O.3     
  25 C25           -6.4316     3.7583     4.0879 C.3     
  26 C26           -5.4755     3.5431     2.9116 C.3     
  27 C27           -6.4991     2.4835     4.9312 C.3     
  28 C28           -9.1951     5.4535     2.2462 C.3     
  29 H29            0.1096     0.1431     1.1429 H       
  30 H30            0.0859     0.0444    -0.6342 H       
  31 H31           -1.6758     1.9152     0.1672 H       
  32 H32            1.8629    -1.5619     1.2141 H       
  33 H33            1.8392    -1.6605    -0.5630 H       
  34 H34            3.3542    -1.2718     0.2867 H       
  35 H35           -0.6604     4.4434     0.9113 H       
  36 H36           -0.6757     4.3460    -0.8660 H       
  37 H37           -3.6989     6.2336    -3.1092 H       
  38 H38           -1.6994     2.5369    -2.1947 H       
  39 H39           -1.2085     1.4000    -5.0448 H       
  40 H40            0.0956     2.5601    -5.3935 H       
  41 H41           -0.0232     1.8125    -3.7826 H       
  42 H42           -2.1141     7.1759    -5.6083 H       
  43 H43           -2.8615     5.9589    -6.6706 H       
  44 H44           -3.8488     6.8071    -5.4566 H       
  45 H45           -6.8069     5.9383     0.9607 H       
  46 H46           -7.1781     4.1966     0.9598 H       
  47 H47           -7.4491     6.1002     3.3315 H       
  48 H48           -6.0723     4.5835     4.7026 H       
  49 H49           -5.8051     2.6841     2.3272 H       
  50 H50           -4.4690     3.3627     3.2891 H       
  51 H51           -6.8566     1.6586     4.3149 H       
  52 H52           -5.5058     2.2476     5.3133 H       
  53 H53           -7.1828     2.6360     5.7663 H       
  54 H54           -9.5150     4.5840     1.6720 H       
  55 H55           -9.8657     5.5960     3.0937 H       
  56 H56           -9.2204     6.3383     1.6101 H       
@<TRIPOS>BOND
   1    1    2 1
   2    1    3 2
   3    1    4 am
   4    2    5 1
   5    2   29 1
   6    2   30 1
   7    4    7 1
   8    4   31 1
   9    5    6 1
  10    6   32 1
  11    6   33 1
  12    6   34 1
  13    7   11 1
  14    7   35 1
  15    7   36 1
  16    8    9 1
  17    8   12 1
  18    9   10 2
  19    9   21 1
  20   10   11 1
  21   11   12 2
  22   12   15 1
  23   13   14 ar
  24   13   18 ar
  25   13   20 1
  26   14   15 ar
  27   14   37 1
  28   15   16 ar
  29   16   17 ar
  30   16   38 1
  31   17   18 ar
  32   17   19 1
  33   19   39 1
  34   19   40 1
  35   19   41 1
  36   20   42 1
  37   20   43 1
  38   20   44 1
  39   21   22 1
  40   21   26 1
  41   22   23 1
  42   22   45 1
  43   22   46 1
  44   23   24 1
  45   23   28 1
  46   23   47 1
  47   24   25 1
  48   25   26 1
  49   25   27 1
  50   25   48 1
  51   26   49 1
  52   26   50 1
  53   27   51 1
  54   27   52 1
  55   27   53 1
  56   28   54 1
  57   28   55 1
  58   28   56 1

#	End of record

