#	Name: ASD05143289
#	Creating user name:	WinNT
#	Creation time:	15. 06. 2019 20:57

#	Modifying user name:	WinNT
#	Modification time:	15. 06. 2019 20:57

#	Program:	/corina/corina34_cracker 3.40 0067  02.08.2006

@<TRIPOS>MOLECULE
ASD05143289
  45   47    0    0    0
SMALL
NO_CHARGES


@<TRIPOS>ATOM
   1 C1             0.3251     1.2337     0.2625 C.2     
   2 N2             0.3280    -0.0325    -0.1039 N.2     
   3 S3            -1.3062    -0.4887    -0.1961 S.3     
   4 C4            -1.9120     1.0561     0.2657 C.2     
   5 N5            -0.8479     1.8030     0.4612 N.2     
   6 N6            -3.2360     1.4300     0.4054 N.pl3   
   7 C7            -3.5559     2.7016     0.8914 C.ar    
   8 C8            -4.8765     3.0242     1.1829 C.ar    
   9 C9            -5.1885     4.2816     1.6633 C.ar    
  10 C10           -4.1887     5.2182     1.8541 C.ar    
  11 C11           -2.8747     4.9002     1.5646 C.ar    
  12 C12           -2.5547     3.6431     1.0893 C.ar    
  13 C13            1.4235    -0.8188    -0.3589 C.ar    
  14 C14            1.6129    -2.0062     0.3500 C.ar    
  15 C15            2.3484    -0.4362    -1.3319 C.ar    
  16 C16            3.4478    -1.2291    -1.5850 C.ar    
  17 C17            3.6355    -2.4064    -0.8737 C.ar    
  18 C18            2.7149    -2.7934     0.0908 C.ar    
  19 C19            1.5882     1.9849     0.4496 C.ar    
  20 C20            1.6387     3.3503     0.1700 C.ar    
  21 C21            2.7300     1.3308     0.9115 C.ar    
  22 C22            3.9034     2.0360     1.0843 C.ar    
  23 C23            3.9485     3.3893     0.8006 C.ar    
  24 C24            2.8179     4.0447     0.3467 C.ar    
  25 Cl25          -6.1317     1.8492     0.9431 Cl      
  26 O26            4.7202    -3.1854    -1.1265 O.3     
  27 C27            4.8520    -4.3832    -0.3583 C.3     
  28 H28           -3.9428     0.8102     0.1664 H       
  29 H29           -6.2140     4.5334     1.8898 H       
  30 H30           -4.4351     6.2003     2.2297 H       
  31 H31           -2.0968     5.6342     1.7144 H       
  32 H32           -1.5279     3.3957     0.8638 H       
  33 H33            0.8974    -2.3078     1.1007 H       
  34 H34            2.2029     0.4794    -1.8859 H       
  35 H35            4.1637    -0.9339    -2.3379 H       
  36 H36            2.8645    -3.7101     0.6420 H       
  37 H37            0.7567     3.8630    -0.1844 H       
  38 H38            2.6957     0.2745     1.1340 H       
  39 H39            4.7882     1.5305     1.4419 H       
  40 H40            4.8691     3.9371     0.9377 H       
  41 H41            2.8593     5.1012     0.1266 H       
  42 H42            3.9860    -5.0223    -0.5304 H       
  43 H43            5.7577    -4.9098    -0.6590 H       
  44 H44            4.9129    -4.1310     0.7004 H       
  45 Br45          10.7577    11.2003     7.2297 Br      
@<TRIPOS>BOND
   1    1    2 2
   2    1   19 1
   3    1    5 1
   4    2    3 1
   5    2   13 1
   6    3    4 1
   7    4    5 2
   8    4    6 1
   9    6    7 1
  10    6   28 1
  11    7    8 ar
  12    7   12 ar
  13    8    9 ar
  14    8   25 1
  15    9   10 ar
  16    9   29 1
  17   10   11 ar
  18   10   30 1
  19   11   12 ar
  20   11   31 1
  21   12   32 1
  22   13   14 ar
  23   13   15 ar
  24   14   18 ar
  25   14   33 1
  26   15   16 ar
  27   15   34 1
  28   16   17 ar
  29   16   35 1
  30   17   18 ar
  31   17   26 1
  32   18   36 1
  33   19   20 ar
  34   19   21 ar
  35   20   24 ar
  36   20   37 1
  37   21   22 ar
  38   21   38 1
  39   22   23 ar
  40   22   39 1
  41   23   24 ar
  42   23   40 1
  43   24   41 1
  44   26   27 1
  45   27   42 1
  46   27   43 1
  47   27   44 1

#	End of record

