#	Name: ASD07190004
#	Creating user name:	WinNT
#	Creation time:	15. 06. 2019 21:09

#	Modifying user name:	WinNT
#	Modification time:	15. 06. 2019 21:09

#	Program:	/corina/corina34_cracker 3.40 0067  02.08.2006

@<TRIPOS>MOLECULE
ASD07190004
  42   44    0    0    0
SMALL
NO_CHARGES


@<TRIPOS>ATOM
   1 C1            -0.0167     1.3811     0.0096 C.ar    
   2 C2             0.0021    -0.0041     0.0020 C.ar    
   3 C3             1.2076    -0.6805    -0.0132 C.ar    
   4 C4             2.4039     0.0343    -0.0208 C.ar    
   5 C5             2.3775     1.4285    -0.0131 C.ar    
   6 C6             1.1687     2.0938     0.0021 C.ar    
   7 C7             3.7000    -0.6849    -0.0366 C.2     
   8 N8             3.9626    -1.8215     0.5614 N.2     
   9 N9             5.2899    -2.1913     0.3221 N.pl3   
  10 C10            5.8900    -1.2413    -0.4640 C.ar    
  11 C11            4.9199    -0.2575    -0.7294 C.ar    
  12 C12            5.9374    -3.4029     0.8312 C.3     
  13 C13            5.7533    -4.5244    -0.1584 C.2     
  14 O14            5.1442    -4.3316    -1.1831 O.2     
  15 C15            6.3295    -5.8866     0.1308 C.3     
  16 C16            6.0026    -6.8344    -1.0249 C.3     
  17 C17            7.8476    -5.7758     0.2857 C.3     
  18 C18            5.7232    -6.4325     1.4251 C.3     
  19 F19           -1.1591    -0.6946     0.0099 F       
  20 C20            5.2515     0.8472    -1.5178 C.ar    
  21 C21            6.5145     0.9617    -2.0237 C.ar    
  22 C22            7.4720    -0.0101    -1.7613 C.ar    
  23 C23            7.1696    -1.1011    -0.9967 C.ar    
  24 H24           -0.9603     1.9064     0.0170 H       
  25 H25            1.2223    -1.7604    -0.0188 H       
  26 H26            3.3019     1.9868    -0.0186 H       
  27 H27            1.1482     3.1736     0.0078 H       
  28 H28            7.0016    -3.2141     0.9725 H       
  29 H29            5.4881    -3.6819     1.7843 H       
  30 H30            6.4345    -6.4456    -1.9470 H       
  31 H31            6.4193    -7.8197    -0.8157 H       
  32 H32            4.9211    -6.9133    -1.1353 H       
  33 H33            8.0804    -5.1006     1.1091 H       
  34 H34            8.2643    -6.7611     0.4949 H       
  35 H35            8.2795    -5.3870    -0.6364 H       
  36 H36            4.6417    -6.5114     1.3147 H       
  37 H37            6.1399    -7.4177     1.6343 H       
  38 H38            5.9561    -5.7572     2.2485 H       
  39 H39            4.5124     1.6066    -1.7264 H       
  40 H40            6.7714     1.8152    -2.6335 H       
  41 H41            8.4662     0.0964    -2.1695 H       
  42 H42            7.9229    -1.8495    -0.7997 H       
@<TRIPOS>BOND
   1    1    2 ar
   2    1    6 ar
   3    1   24 1
   4    2    3 ar
   5    2   19 1
   6    3    4 ar
   7    3   25 1
   8    4    5 ar
   9    4    7 1
  10    5    6 ar
  11    5   26 1
  12    6   27 1
  13    7    8 2
  14    7   11 1
  15    8    9 1
  16    9   10 1
  17    9   12 1
  18   10   11 ar
  19   10   23 ar
  20   11   20 ar
  21   12   13 1
  22   12   28 1
  23   12   29 1
  24   13   14 2
  25   13   15 1
  26   15   16 1
  27   15   17 1
  28   15   18 1
  29   16   30 1
  30   16   31 1
  31   16   32 1
  32   17   33 1
  33   17   34 1
  34   17   35 1
  35   18   36 1
  36   18   37 1
  37   18   38 1
  38   20   21 ar
  39   20   39 1
  40   21   22 ar
  41   21   40 1
  42   22   23 ar
  43   22   41 1
  44   23   42 1

#	End of record

