#	Name: ASD01880277
#	Creating user name:	WinNT
#	Creation time:	15. 06. 2019 19:40

#	Modifying user name:	WinNT
#	Modification time:	15. 06. 2019 19:40

#	Program:	/corina/corina34_cracker 3.40 0067  02.08.2006

@<TRIPOS>MOLECULE
ASD01880277
  41   44    0    0    0
SMALL
NO_CHARGES


@<TRIPOS>ATOM
   1 C1            -0.0180     1.4798     0.0102 C.ar    
   2 C2             0.0021    -0.0041     0.0020 C.2     
   3 C3            -0.4771    -0.7020     1.0725 C.2     
   4 N4            -0.4626    -2.0582     1.0736 N.am    
   5 C5             0.0235    -2.7446     0.0227 C.2     
   6 C6             0.5262    -2.0618    -1.0989 C.2     
   7 C7             0.5116    -0.7001    -1.1154 C.2     
   8 O8             0.0284    -3.9649     0.0438 O.2     
   9 C9            -0.9824    -2.7857     2.2341 C.3     
  10 C10            1.1784     2.1943     0.0026 C.ar    
  11 C11            1.1565     3.5734     0.0097 C.ar    
  12 C12           -0.0556     4.2496     0.0249 C.ar    
  13 C13           -1.2490     3.5407     0.0330 C.ar    
  14 C14           -1.2335     2.1615     0.0196 C.ar    
  15 O15           -0.0740     5.6085     0.0324 O.3     
  16 C16           -1.3559     6.2399     0.0480 C.3     
  17 C17           -2.4538    -3.0495     2.0438 C.2     
  18 O18           -3.4380    -2.2277     2.4408 O.3     
  19 C19           -4.6193    -2.7913     2.1033 C.ar    
  20 C20           -4.3081    -4.0072     1.4755 C.ar    
  21 N21           -2.9508    -4.1021     1.4670 N.2     
  22 C22           -5.9439    -2.4123     2.2558 C.ar    
  23 C23           -6.9515    -3.2312     1.7902 C.ar    
  24 C24           -6.6490    -4.4354     1.1682 C.ar    
  25 C25           -5.3363    -4.8272     1.0086 C.ar    
  26 F26           -7.6460    -5.2276     0.7171 F       
  27 H27           -0.8708    -0.1700     1.9259 H       
  28 H28            0.9165    -2.6125    -1.9419 H       
  29 H29            0.8933    -0.1595    -1.9689 H       
  30 H30           -0.4535    -3.7334     2.3356 H       
  31 H31           -0.8337    -2.1885     3.1337 H       
  32 H32            2.1218     1.6687    -0.0085 H       
  33 H33            2.0834     4.1277     0.0039 H       
  34 H34           -2.1906     4.0695     0.0451 H       
  35 H35           -2.1623     1.6104     0.0259 H       
  36 H36           -1.9174     5.9442    -0.8383 H       
  37 H37           -1.9004     5.9347     0.9416 H       
  38 H38           -1.2278     7.3223     0.0525 H       
  39 H39           -6.1867    -1.4773     2.7388 H       
  40 H40           -7.9828    -2.9339     1.9105 H       
  41 H41           -5.1051    -5.7647     0.5247 H       
@<TRIPOS>BOND
   1    1    2 1
   2    1   10 ar
   3    1   14 ar
   4    2    3 2
   5    2    7 1
   6    3    4 1
   7    3   27 1
   8    4    5 am
   9    4    9 1
  10    5    6 1
  11    5    8 2
  12    6    7 2
  13    6   28 1
  14    7   29 1
  15    9   17 1
  16    9   30 1
  17    9   31 1
  18   10   11 ar
  19   10   32 1
  20   11   12 ar
  21   11   33 1
  22   12   13 ar
  23   12   15 1
  24   13   14 ar
  25   13   34 1
  26   14   35 1
  27   15   16 1
  28   16   36 1
  29   16   37 1
  30   16   38 1
  31   17   18 1
  32   17   21 2
  33   18   19 1
  34   19   20 ar
  35   19   22 ar
  36   20   21 1
  37   20   25 ar
  38   22   23 ar
  39   22   39 1
  40   23   24 ar
  41   23   40 1
  42   24   25 ar
  43   24   26 1
  44   25   41 1

#	End of record

