#	Name: ASD07300526
#	Creating user name:	WinNT
#	Creation time:	15. 06. 2019 21:09

#	Modifying user name:	WinNT
#	Modification time:	15. 06. 2019 21:09

#	Program:	/corina/corina34_cracker 3.40 0067  02.08.2006

@<TRIPOS>MOLECULE
ASD07300526
  28   30    0    0    0
SMALL
NO_CHARGES


@<TRIPOS>ATOM
   1 C1            -0.0162     1.3858    -0.0074 C.ar    
   2 C2             0.0712     0.0975     0.5035 C.ar    
   3 C3             1.2754    -0.5773     0.4723 C.ar    
   4 C4             2.3991     0.0324    -0.0701 C.ar    
   5 C5             2.3116     1.3208    -0.5811 C.ar    
   6 C6             1.1074     1.9955    -0.5498 C.ar    
   7 N7            -1.2394     2.0683     0.0191 N.pl3   
   8 N8             3.6197    -0.6514    -0.1015 N.pl3   
   9 O9            -2.3647     4.2039     0.0547 O.3     
  10 C10           -1.2598     3.4409     0.1307 C.2     
  11 N11           -0.2069     4.1932     0.3261 N.2     
  12 C12           -0.6043     5.4937     0.3840 C.ar    
  13 C13           -1.9966     5.4966     0.2086 C.ar    
  14 C14            0.0713     6.7003     0.5696 C.ar    
  15 C15           -0.6341     7.8841     0.5790 C.ar    
  16 C16           -2.0093     7.8824     0.4057 C.ar    
  17 C17           -2.6900     6.6954     0.2207 C.ar    
  18 H18           -0.8026    -0.3764     0.9257 H       
  19 H19            1.3435    -1.5791     0.8700 H       
  20 H20            3.1855     1.7951    -1.0026 H       
  21 H21            1.0392     2.9973    -0.9475 H       
  22 H22           -2.0719     1.5741    -0.0410 H       
  23 H23            3.6809    -1.5511     0.2557 H       
  24 H24            4.4046    -0.2255    -0.4803 H       
  25 H25            1.1426     6.7065     0.7057 H       
  26 H26           -0.1124     8.8188     0.7225 H       
  27 H27           -2.5522     8.8160     0.4155 H       
  28 H28           -3.7615     6.7019     0.0857 H       
@<TRIPOS>BOND
   1    1    2 ar
   2    1    6 ar
   3    1    7 1
   4    2    3 ar
   5    2   18 1
   6    3    4 ar
   7    3   19 1
   8    4    5 ar
   9    4    8 1
  10    5    6 ar
  11    5   20 1
  12    6   21 1
  13    7   10 1
  14    7   22 1
  15    8   23 1
  16    8   24 1
  17    9   10 1
  18    9   13 1
  19   10   11 2
  20   11   12 1
  21   12   13 ar
  22   12   14 ar
  23   13   17 ar
  24   14   15 ar
  25   14   25 1
  26   15   16 ar
  27   15   26 1
  28   16   17 ar
  29   16   27 1
  30   17   28 1

#	End of record

