#	Name: ASD01815177
#	Creating user name:	WinNT
#	Creation time:	15. 06. 2019 19:33

#	Modifying user name:	WinNT
#	Modification time:	15. 06. 2019 19:33

#	Program:	/corina/corina34_cracker 3.40 0067  02.08.2006

@<TRIPOS>MOLECULE
ASD01815177
  45   48    0    0    0
SMALL
NO_CHARGES


@<TRIPOS>ATOM
   1 C1            -0.0167     1.3820     0.0096 C.ar    
   2 C2             0.0021    -0.0041     0.0020 C.ar    
   3 C3             1.1959    -0.6932    -0.0127 C.ar    
   4 C4             2.4016     0.0019    -0.0200 C.ar    
   5 C5             2.3831     1.4075    -0.0128 C.ar    
   6 C6             1.1665     2.0939     0.0022 C.ar    
   7 N7             3.6010    -0.6771    -0.0337 N.pl3   
   8 C8             4.7870    -0.0549    -0.0404 C.2     
   9 C9             4.8957     1.3208    -0.0340 C.2     
  10 C10            3.6667     2.1313    -0.0207 C.2     
  11 C11            3.5775    -2.1419    -0.0409 C.3     
  12 H12            1.1956    -1.7731    -0.0181 H       
  13 O13            3.7091     3.3491    -0.0150 O.2     
  14 C14            6.2161     1.9660    -0.0412 C.2     
  15 O15            6.3092     3.3109    -0.0348 O.3     
  16 O16            7.2244     1.2870    -0.0529 O.2     
  17 C17            3.5572    -2.6371    -1.4640 C.ar    
  18 N18            2.4063    -2.7376    -2.1001 N.ar    
  19 C19            2.3346    -3.1644    -3.3445 C.ar    
  20 C20            3.4872    -3.5282    -4.0368 C.ar    
  21 C21            4.7224    -3.4329    -3.3904 C.ar    
  22 C22            4.7465    -2.9736    -2.0848 C.ar    
  23 F23            1.1476     3.4448     0.0091 F       
  24 C24            3.4047    -4.0098    -5.4386 C.2     
  25 C25            3.0032    -3.3185    -6.5463 C.2     
  26 O26            3.0999    -4.1708    -7.5757 O.3     
  27 N27            3.4993    -5.2561    -7.2249 N.2     
  28 C28            3.7310    -5.2987    -5.9462 C.2     
  29 C29            4.2359    -6.4796    -5.1577 C.3     
  30 C30            2.5432    -1.8844    -6.5998 C.3     
  31 H31           -0.9604     1.9071     0.0170 H       
  32 H32           -0.9295    -0.5505     0.0080 H       
  33 H33            5.6884    -0.6497    -0.0508 H       
  34 H34            4.4660    -2.5220     0.4634 H       
  35 H35            2.6863    -2.4936     0.4789 H       
  36 H36            7.1990     3.6894    -0.0400 H       
  37 H37            1.3734    -3.2331    -3.8321 H       
  38 H38            5.6355    -3.7068    -3.8979 H       
  39 H39            5.6830    -2.8870    -1.5539 H       
  40 H40            5.3254    -6.4612    -5.1333 H       
  41 H41            3.8487    -6.4293    -4.1400 H       
  42 H42            3.8986    -7.4025    -5.6296 H       
  43 H43            3.4005    -1.2341    -6.7735 H       
  44 H44            1.8250    -1.7632    -7.4107 H       
  45 H45            2.0714    -1.6187    -5.6538 H       
@<TRIPOS>BOND
   1    1    2 ar
   2    1    6 ar
   3    1   31 1
   4    2    3 ar
   5    2   32 1
   6    3    4 ar
   7    3   12 1
   8    4    5 ar
   9    4    7 1
  10    5    6 ar
  11    5   10 1
  12    6   23 1
  13    7    8 1
  14    7   11 1
  15    8    9 2
  16    8   33 1
  17    9   10 1
  18    9   14 1
  19   10   13 2
  20   11   17 1
  21   11   34 1
  22   11   35 1
  23   14   15 1
  24   14   16 2
  25   15   36 1
  26   17   18 ar
  27   17   22 ar
  28   18   19 ar
  29   19   20 ar
  30   19   37 1
  31   20   21 ar
  32   20   24 1
  33   21   22 ar
  34   21   38 1
  35   22   39 1
  36   24   25 2
  37   24   28 1
  38   25   26 1
  39   25   30 1
  40   26   27 1
  41   27   28 2
  42   28   29 1
  43   29   40 1
  44   29   41 1
  45   29   42 1
  46   30   43 1
  47   30   44 1
  48   30   45 1

#	End of record

