#	Name: ASD01028663
#	Creating user name:	WinNT
#	Creation time:	15. 06. 2019 18:57

#	Modifying user name:	WinNT
#	Modification time:	15. 06. 2019 18:57

#	Program:	/corina/corina34_cracker 3.40 0067  02.08.2006

@<TRIPOS>MOLECULE
ASD01028663
  46   50    0    0    0
SMALL
NO_CHARGES


@<TRIPOS>ATOM
   1 N1            -0.0157     1.3086     0.0092 N.ar    
   2 C2             0.0021    -0.0041     0.0020 C.ar    
   3 C3             1.1929    -0.7180    -0.0127 C.ar    
   4 C4             2.4010    -0.0409    -0.0206 C.ar    
   5 C5             2.3699     1.3759    -0.0131 C.ar    
   6 N6             3.4972     2.0878    -0.0196 N.ar    
   7 C7             3.4806     3.3981    -0.0124 C.ar    
   8 C8             2.2786     4.1130     0.0024 C.ar    
   9 C9             1.0780     3.4323     0.0097 C.ar    
  10 C10            1.1130     2.0256     0.0023 C.ar    
  11 N11            3.6056    -0.7290    -0.0349 N.pl3   
  12 C12            3.6123    -2.1940    -0.0419 C.3     
  13 C13            7.0344    -3.3253    -0.7188 C.2     
  14 C14            8.0522    -3.5921    -1.6561 C.2     
  15 C15            7.8111    -3.3834    -2.9768 C.2     
  16 C16            6.5522    -2.9038    -3.3988 C.2     
  17 N17            5.6009    -2.6549    -2.5240 N.2     
  18 N18            5.8203    -2.8603    -1.1583 N.pl3   
  19 N19            6.9815    -3.4258     0.6018 N.2     
  20 C20            5.7735    -3.0463     1.0202 C.2     
  21 C21            5.0353    -2.6897    -0.0573 C.2     
  22 S22            7.4151    -2.9415    -6.1907 S.3     
  23 N23            6.3221    -2.4459    -7.3905 N.2     
  24 C24            5.2131    -2.1141    -6.7982 C.2     
  25 C25            5.1445    -2.2194    -5.4309 C.2     
  26 C26            6.2996    -2.6793    -4.8384 C.2     
  27 C27            4.0306    -1.6248    -7.5940 C.3     
  28 O28            2.2928     5.4715     0.0099 O.3     
  29 C29            3.5727     6.1070     0.0021 C.3     
  30 H30           -0.9340    -0.5427     0.0081 H       
  31 H31            1.1771    -1.7979    -0.0177 H       
  32 H32            4.4160     3.9379    -0.0177 H       
  33 H33            0.1381     3.9642     0.0211 H       
  34 H34            4.4433    -0.2401    -0.0403 H       
  35 H35            3.1083    -2.5639     0.8510 H       
  36 H36            3.0920    -2.5555    -0.9289 H       
  37 H37            9.0138    -3.9582    -1.3281 H       
  38 H38            8.5835    -3.5842    -3.7045 H       
  39 H39            5.4407    -3.0237     2.0474 H       
  40 H40            4.2595    -1.9628    -4.8675 H       
  41 H41            3.4072    -2.4729    -7.8772 H       
  42 H42            3.4471    -0.9311    -6.9886 H       
  43 H43            4.3821    -1.1164    -8.4918 H       
  44 H44            4.1345     5.8033     0.8854 H       
  45 H45            4.1186     5.8134    -0.8944 H       
  46 H46            3.4411     7.1890     0.0094 H       
@<TRIPOS>BOND
   1    1    2 ar
   2    1   10 ar
   3    2    3 ar
   4    2   30 1
   5    3    4 ar
   6    3   31 1
   7    4    5 ar
   8    4   11 1
   9    5    6 ar
  10    5   10 ar
  11    6    7 ar
  12    7    8 ar
  13    7   32 1
  14    8    9 ar
  15    8   28 1
  16    9   10 ar
  17    9   33 1
  18   11   12 1
  19   11   34 1
  20   12   21 1
  21   12   35 1
  22   12   36 1
  23   13   14 1
  24   13   18 1
  25   13   19 2
  26   14   15 2
  27   14   37 1
  28   15   16 1
  29   15   38 1
  30   16   17 2
  31   16   26 1
  32   17   18 1
  33   18   21 1
  34   19   20 1
  35   20   21 2
  36   20   39 1
  37   22   23 1
  38   22   26 1
  39   23   24 2
  40   24   25 1
  41   24   27 1
  42   25   26 2
  43   25   40 1
  44   27   41 1
  45   27   42 1
  46   27   43 1
  47   28   29 1
  48   29   44 1
  49   29   45 1
  50   29   46 1

#	End of record

