#	Name: ASD00550002
#	Creating user name:	WinNT
#	Creation time:	15. 06. 2019 18:36

#	Modifying user name:	WinNT
#	Modification time:	15. 06. 2019 18:36

#	Program:	/corina/corina34_cracker 3.40 0067  02.08.2006

@<TRIPOS>MOLECULE
ASD00550002
  59   61    0    0    0
SMALL
NO_CHARGES


@<TRIPOS>ATOM
   1 C1             0.0080     1.3741    -0.1973 C.ar    
   2 C2            -0.0005    -0.0026    -0.0005 C.ar    
   3 C3            -1.1587    -0.7219    -0.2022 C.ar    
   4 C4            -2.3249    -0.0656    -0.6043 C.ar    
   5 C5            -2.3117     1.3179    -0.8003 C.ar    
   6 C6            -1.1517     2.0303    -0.5921 C.ar    
   7 C7            -3.5675    -0.8319    -0.8220 C.2     
   8 O8             1.1504     2.0794     0.0022 O.3     
   9 C9             1.0595     3.5022    -0.0941 C.3     
  10 C10            2.1788     4.1417     0.7300 C.3     
  11 C11            1.1993     3.9242    -1.5581 C.3     
  12 Cl12           1.4494    -0.8161     0.4991 Cl      
  13 O13           -3.5772    -2.0357    -0.6514 O.2     
  14 N14           -4.6914    -0.1972    -1.2098 N.am    
  15 C15           -5.9248    -0.9577    -1.4259 C.3     
  16 C16           -6.6463    -1.1280    -0.1138 C.2     
  17 N17           -7.8136    -1.8002    -0.0690 N.am    
  18 C18           -8.5150    -1.9657     1.2065 C.3     
  19 C19           -6.8235    -0.2037    -2.4081 C.3     
  20 C20           -6.1527    -0.1407    -3.7560 C.ar    
  21 C21           -6.3726    -1.1438    -4.6827 C.ar    
  22 C22           -5.7608    -1.0911    -5.9188 C.ar    
  23 C23           -4.9203    -0.0249    -6.2324 C.ar    
  24 C24           -4.7023     0.9828    -5.2951 C.ar    
  25 C25           -5.3237     0.9229    -4.0641 C.ar    
  26 O26           -6.1765    -0.6601     0.9017 O.2     
  27 C27           -4.2594     0.0369    -7.5595 C.ar    
  28 C28           -3.4189     1.1030    -7.8731 C.ar    
  29 C29           -2.8068     1.1555    -9.1090 C.ar    
  30 C30           -3.0267     0.1524   -10.0357 C.ar    
  31 C31           -3.8605    -0.9081    -9.7299 C.ar    
  32 C32           -4.4725    -0.9740    -8.4945 C.ar    
  33 H33           -1.1649    -1.7911    -0.0500 H       
  34 H34           -3.2111     1.8284    -1.1114 H       
  35 H35           -1.1413     3.0996    -0.7432 H       
  36 H36            0.0933     3.8314     0.2882 H       
  37 H37            3.1451     3.8126     0.3476 H       
  38 H38            2.1096     5.2270     0.6565 H       
  39 H39            2.0793     3.8411     1.7730 H       
  40 H40            1.1300     5.0095    -1.6316 H       
  41 H41            2.1655     3.5951    -1.9405 H       
  42 H42            0.4019     3.4686    -2.1452 H       
  43 H43           -4.6837     0.7632    -1.3459 H       
  44 H44           -5.6803    -1.9376    -1.8359 H       
  45 H45           -8.1893    -2.1744    -0.8812 H       
  46 H46           -7.8747    -2.5029     1.9062 H       
  47 H47           -8.7595    -0.9858     1.6165 H       
  48 H48           -9.4326    -2.5316     1.0457 H       
  49 H49           -7.7770    -0.7236    -2.5007 H       
  50 H50           -6.9954     0.8078    -2.0401 H       
  51 H51           -7.0239    -1.9699    -4.4384 H       
  52 H52           -5.9329    -1.8750    -6.6414 H       
  53 H53           -4.0519     1.8114    -5.5330 H       
  54 H54           -5.1555     1.7034    -3.3369 H       
  55 H55           -3.2470     1.8871    -7.1506 H       
  56 H56           -2.1552     1.9814    -9.3532 H       
  57 H57           -2.5460     0.1976   -11.0018 H       
  58 H58           -4.0290    -1.6884   -10.4572 H       
  59 H59           -5.1230    -1.8026    -8.2566 H       
@<TRIPOS>BOND
   1    1    2 ar
   2    1    8 1
   3    1    6 ar
   4    2    3 ar
   5    2   12 1
   6    3    4 ar
   7    3   33 1
   8    4    5 ar
   9    4    7 1
  10    5    6 ar
  11    5   34 1
  12    6   35 1
  13    7   13 2
  14    7   14 am
  15    8    9 1
  16    9   10 1
  17    9   11 1
  18    9   36 1
  19   10   37 1
  20   10   38 1
  21   10   39 1
  22   11   40 1
  23   11   41 1
  24   11   42 1
  25   14   15 1
  26   14   43 1
  27   15   16 1
  28   15   19 1
  29   15   44 1
  30   16   17 am
  31   16   26 2
  32   17   18 1
  33   17   45 1
  34   18   46 1
  35   18   47 1
  36   18   48 1
  37   19   20 1
  38   19   49 1
  39   19   50 1
  40   20   21 ar
  41   20   25 ar
  42   21   22 ar
  43   21   51 1
  44   22   23 ar
  45   22   52 1
  46   23   24 ar
  47   23   27 1
  48   24   25 ar
  49   24   53 1
  50   25   54 1
  51   27   28 ar
  52   27   32 ar
  53   28   29 ar
  54   28   55 1
  55   29   30 ar
  56   29   56 1
  57   30   31 ar
  58   30   57 1
  59   31   32 ar
  60   31   58 1
  61   32   59 1

#	End of record

