#	Name: ASD01914890
#	Creating user name:	WinNT
#	Creation time:	15. 06. 2019 20:04

#	Modifying user name:	WinNT
#	Modification time:	15. 06. 2019 20:04

#	Program:	/corina/corina34_cracker 3.40 0067  02.08.2006

@<TRIPOS>MOLECULE
ASD01914890
  45   48    0    0    0
SMALL
NO_CHARGES


@<TRIPOS>ATOM
   1 N1            -0.0178     1.4648     0.0101 N.3     
   2 C2             0.0021    -0.0041     0.0020 C.3     
   3 C3             0.6750    -0.4958    -1.2827 C.3     
   4 C4             1.0959     0.7200    -2.1177 C.3     
   5 C5             2.0575     1.5766    -1.2844 C.3     
   6 C6             1.3461     2.0114     0.0000 C.3     
   7 C7            -0.8025     1.9884    -1.1166 C.3     
   8 C8            -0.1530     1.5529    -2.4331 C.3     
   9 N9             3.8423    -1.9506    -0.1477 N.pl3   
  10 N10            2.9309    -0.8930    -0.2607 N.2     
  11 C11            1.8913    -1.3146    -0.9342 C.2     
  12 C12            2.1017    -2.6584    -1.2761 C.2     
  13 C13            3.3102    -3.0294    -0.7812 C.2     
  14 S14            0.9944    -3.6830    -2.1866 S.3     
  15 C15            1.8752    -5.2669    -2.2651 C.3     
  16 C16            1.0309    -6.2822    -3.0378 C.3     
  17 C17            1.7626    -7.5980    -3.1030 C.ar    
  18 C18            1.5747    -8.5432    -2.1119 C.ar    
  19 C19            2.2460    -9.7502    -2.1717 C.ar    
  20 C20            3.1047   -10.0121    -3.2228 C.ar    
  21 C21            3.2918    -9.0673    -4.2144 C.ar    
  22 C22            2.6173    -7.8621    -4.1569 C.ar    
  23 H23            0.5602    -0.3649     0.8660 H       
  24 H24           -1.0195    -0.3818     0.0450 H       
  25 H25           -0.0267    -1.1050    -1.8525 H       
  26 H26            1.5845     0.3934    -3.0357 H       
  27 H27            2.9421     0.9918    -1.0318 H       
  28 H28            2.3506     2.4574    -1.8557 H       
  29 H29            1.3021     3.0998     0.0408 H       
  30 H30            1.8945     1.6366     0.8643 H       
  31 H31           -1.8185     1.5969    -1.0653 H       
  32 H32           -0.8289     3.0769    -1.0667 H       
  33 H33            0.1312     2.4336    -3.0090 H       
  34 H34           -0.8580     0.9511    -3.0066 H       
  35 H35            4.7024    -1.9178     0.2996 H       
  36 H36            3.7662    -4.0040    -0.8745 H       
  37 H37            2.8297    -5.1270    -2.7725 H       
  38 H38            2.0515    -5.6351    -1.2544 H       
  39 H39            0.0763    -6.4220    -2.5304 H       
  40 H40            0.8546    -5.9140    -4.0485 H       
  41 H41            0.9038    -8.3385    -1.2907 H       
  42 H42            2.0997   -10.4883    -1.3970 H       
  43 H43            3.6296   -10.9548    -3.2692 H       
  44 H44            3.9630    -9.2718    -5.0354 H       
  45 H45            2.7607    -7.1254    -4.9335 H       
@<TRIPOS>BOND
   1    1    2 1
   2    1    6 1
   3    1    7 1
   4    2    3 1
   5    2   23 1
   6    2   24 1
   7    3    4 1
   8    3   11 1
   9    3   25 1
  10    4    5 1
  11    4    8 1
  12    4   26 1
  13    5    6 1
  14    5   27 1
  15    5   28 1
  16    6   29 1
  17    6   30 1
  18    7    8 1
  19    7   31 1
  20    7   32 1
  21    8   33 1
  22    8   34 1
  23    9   10 1
  24    9   13 1
  25    9   35 1
  26   10   11 2
  27   11   12 1
  28   12   13 2
  29   12   14 1
  30   13   36 1
  31   14   15 1
  32   15   16 1
  33   15   37 1
  34   15   38 1
  35   16   17 1
  36   16   39 1
  37   16   40 1
  38   17   18 ar
  39   17   22 ar
  40   18   19 ar
  41   18   41 1
  42   19   20 ar
  43   19   42 1
  44   20   21 ar
  45   20   43 1
  46   21   22 ar
  47   21   44 1
  48   22   45 1

#	End of record

