#	Name: ASD03730712
#	Creating user name:	WinNT
#	Creation time:	15. 06. 2019 20:44

#	Modifying user name:	WinNT
#	Modification time:	15. 06. 2019 20:44

#	Program:	/corina/corina34_cracker 3.40 0067  02.08.2006

@<TRIPOS>MOLECULE
ASD03730712
  65   71    0    0    0
SMALL
NO_CHARGES


@<TRIPOS>ATOM
   1 C1             1.3676    -1.2410    -2.5543 C.2     
   2 C2             0.7536    -1.4894    -1.2328 C.ar    
   3 C3             1.4891    -1.2731    -0.0661 C.ar    
   4 C4             0.9101    -1.5069     1.1638 C.ar    
   5 C5            -0.3968    -1.9549     1.2428 C.ar    
   6 C6            -1.1312    -2.1713     0.0905 C.ar    
   7 C7            -0.5660    -1.9358    -1.1459 C.ar    
   8 O8             2.4859    -0.7698    -2.6259 O.2     
   9 N9             0.6899    -1.5421    -3.6796 N.am    
  10 C10            2.9126    -0.7857    -0.1502 C.3     
  11 O11            1.4119    -3.3918     6.3803 O.3     
  12 C12            1.6257    -3.4783     7.8015 C.3     
  13 O13            3.0574    -3.4103     7.9370 O.3     
  14 C14            3.4949    -2.7095     6.8497 C.ar    
  15 C15            2.4830    -2.6993     5.8924 C.ar    
  16 C16            4.6939    -2.0680     6.5955 C.ar    
  17 C17            4.8998    -1.4114     5.3860 C.ar    
  18 C18            3.8846    -1.4152     4.4342 C.ar    
  19 C19            2.6857    -2.0486     4.6870 C.ar    
  20 O20            5.9857    -0.7124     4.9472 O.3     
  21 C21            4.4106    -0.6601     3.2430 C.3     
  22 C22            5.9192    -0.5819     3.5140 C.3     
  23 N23            3.4076    -0.4890     1.1963 N.am    
  24 C24            4.1098    -1.3595     1.9488 C.2     
  25 C25            3.7943     0.7011     3.1122 C.ar    
  26 C26            3.7241     1.7975     3.9424 C.ar    
  27 C27            3.0675     2.9416     3.5253 C.ar    
  28 C28            2.4815     2.9812     2.2732 C.ar    
  29 C29            2.5483     1.8853     1.4384 C.ar    
  30 C30            3.2075     0.7294     1.8497 C.ar    
  31 O31            4.4351    -2.4865     1.6406 O.2     
  32 C32            1.2548    -1.2710    -4.9298 C.ar    
  33 C33            0.6208    -1.7018    -6.0884 C.ar    
  34 C34            1.1814    -1.4325    -7.3213 C.ar    
  35 C35            2.3730    -0.7352    -7.4034 C.ar    
  36 C36            3.0066    -0.3051    -6.2522 C.ar    
  37 C37            2.4480    -0.5657    -5.0161 C.ar    
  38 C38            0.4943    -1.8994    -8.5786 C.3     
  39 C39           -0.6770    -2.4625    -5.9997 C.3     
  40 H40            1.4781    -1.3403     2.0671 H       
  41 H41           -0.8454    -2.1368     2.2082 H       
  42 H42           -2.1508    -2.5209     0.1591 H       
  43 H43           -1.1419    -2.1005    -2.0445 H       
  44 H44           -0.1898    -1.9468    -3.6224 H       
  45 H45            3.5346    -1.5573    -0.6041 H       
  46 H46            2.9520     0.1175    -0.7591 H       
  47 H47            1.1524    -2.6394     8.3117 H       
  48 H48            1.2489    -4.4251     8.1885 H       
  49 H49            5.4755    -2.0770     7.3408 H       
  50 H50            1.9031    -2.0373     3.9428 H       
  51 H51            6.3207     0.3796     3.1938 H       
  52 H52            6.4434    -1.4034     3.0257 H       
  53 H53            4.1822     1.7643     4.9199 H       
  54 H54            3.0131     3.8020     4.1758 H       
  55 H55            1.9689     3.8743     1.9477 H       
  56 H56            2.0878     1.9236     0.4622 H       
  57 H57            2.8097    -0.5265    -8.3689 H       
  58 H58            3.9371     0.2389    -6.3198 H       
  59 H59            2.9409    -0.2253    -4.1175 H       
  60 H60           -0.1925    -1.1273    -8.9255 H       
  61 H61            1.2401    -2.0950    -9.3490 H       
  62 H62           -0.0618    -2.8136    -8.3708 H       
  63 H63           -1.5114    -1.7614    -6.0219 H       
  64 H64           -0.7553    -3.1471    -6.8443 H       
  65 H65           -0.7032    -3.0291    -5.0690 H       
@<TRIPOS>BOND
   1    1    2 1
   2    1    8 2
   3    1    9 am
   4    2    3 ar
   5    2    7 ar
   6    3    4 ar
   7    3   10 1
   8    4    5 ar
   9    4   40 1
  10    5    6 ar
  11    5   41 1
  12    6    7 ar
  13    6   42 1
  14    7   43 1
  15    9   32 1
  16    9   44 1
  17   10   23 1
  18   10   45 1
  19   10   46 1
  20   11   12 1
  21   11   15 1
  22   12   13 1
  23   12   47 1
  24   12   48 1
  25   13   14 1
  26   14   15 ar
  27   14   16 ar
  28   15   19 ar
  29   16   17 ar
  30   16   49 1
  31   17   18 ar
  32   17   20 1
  33   18   19 ar
  34   18   21 1
  35   19   50 1
  36   20   22 1
  37   21   22 1
  38   21   24 1
  39   21   25 1
  40   22   51 1
  41   22   52 1
  42   23   24 am
  43   23   30 1
  44   24   31 2
  45   25   26 ar
  46   25   30 ar
  47   26   27 ar
  48   26   53 1
  49   27   28 ar
  50   27   54 1
  51   28   29 ar
  52   28   55 1
  53   29   30 ar
  54   29   56 1
  55   32   33 ar
  56   32   37 ar
  57   33   34 ar
  58   33   39 1
  59   34   35 ar
  60   34   38 1
  61   35   36 ar
  62   35   57 1
  63   36   37 ar
  64   36   58 1
  65   37   59 1
  66   38   60 1
  67   38   61 1
  68   38   62 1
  69   39   63 1
  70   39   64 1
  71   39   65 1

#	End of record

