#	Name: ASD02500149
#	Creating user name:	WinNT
#	Creation time:	15. 06. 2019 20:22

#	Modifying user name:	WinNT
#	Modification time:	15. 06. 2019 20:22

#	Program:	/corina/corina34_cracker 3.40 0067  02.08.2006

@<TRIPOS>MOLECULE
ASD02500149
  66   70    0    0    0
SMALL
NO_CHARGES


@<TRIPOS>ATOM
   1 N1            -1.4246     0.8484    -0.7106 N.am    
   2 C2            -0.9190    -0.3987    -1.3012 C.3     
   3 C3             0.2507    -0.0604    -2.2337 C.3     
   4 N4             1.1878     0.8132    -1.5136 N.am    
   5 C5             0.6822     2.0604    -0.9231 C.3     
   6 C6            -0.4875     1.7220     0.0094 C.3     
   7 C7            -2.7233     1.1877    -0.8320 C.2     
   8 O8            -3.1483     2.1779    -0.2688 O.2     
   9 N9            -3.5511     0.4292    -1.5778 N.am    
  10 C10            2.4876     0.4764    -1.3966 C.2     
  11 C11            3.4394     1.4151    -0.7727 C.ar    
  12 C12            4.5089     0.9281    -0.0155 C.ar    
  13 C13            5.3951     1.8062     0.5653 C.ar    
  14 C14            5.2274     3.1782     0.3994 C.ar    
  15 C15            4.1631     3.6663    -0.3537 C.ar    
  16 C16            3.2771     2.7932    -0.9422 C.ar    
  17 O17            2.8757    -0.6010    -1.8052 O.2     
  18 S18            6.7636     5.3063     0.0998 S.o2    
  19 O19            5.6661     5.9617    -0.5208 O.2     
  20 O20            7.6872     5.9727     0.9496 O.2     
  21 N21            6.1246     4.0629     0.9875 N.am    
  22 N22            9.3226     3.7539     0.3558 N.ar    
  23 C23           10.4250     3.1026     0.6362 C.ar    
  24 C24           11.2053     2.5189    -0.3597 C.ar    
  25 C25           10.8264     2.6177    -1.6681 C.ar    
  26 C26            9.6417     3.3174    -1.9655 C.ar    
  27 C27            9.1892     3.4608    -3.2867 C.ar    
  28 C28            8.0382     4.1455    -3.5332 C.ar    
  29 C29            7.3023     4.7054    -2.4911 C.ar    
  30 C30            7.7123     4.5864    -1.1987 C.ar    
  31 C31            8.8955     3.8873    -0.9040 C.ar    
  32 C32           -4.9125     0.7520    -1.6615 C.ar    
  33 C33           -5.8536    -0.2468    -1.9022 C.ar    
  34 C34           -7.1976     0.0778    -1.9834 C.ar    
  35 C35           -7.6029     1.3906    -1.8259 C.ar    
  36 C36           -6.6697     2.3820    -1.5871 C.ar    
  37 C37           -5.3268     2.0653    -1.4994 C.ar    
  38 O38           -5.4535    -1.5372    -2.0573 O.3     
  39 C39           -6.4735    -2.5078    -2.3013 C.3     
  40 H40           -0.5752    -1.0651    -0.5100 H       
  41 H41           -1.7128    -0.8820    -1.8706 H       
  42 H42            0.7597    -0.9777    -2.5297 H       
  43 H43           -0.1238     0.4549    -3.1182 H       
  44 H44            1.4760     2.5437    -0.3536 H       
  45 H45            0.3384     2.7267    -1.7142 H       
  46 H46           -0.9965     2.6393     0.3055 H       
  47 H47           -0.1130     1.2067     0.8939 H       
  48 H48           -3.2046    -0.3400    -2.0565 H       
  49 H49            4.6393    -0.1362     0.1139 H       
  50 H50            6.2213     1.4306     1.1507 H       
  51 H51            4.0353     4.7313    -0.4800 H       
  52 H52            2.4546     3.1723    -1.5306 H       
  53 H53            6.3761     3.9518     1.9177 H       
  54 H54           10.7370     3.0165     1.6666 H       
  55 H55           12.1092     1.9891    -0.0972 H       
  56 H56           11.4194     2.1716    -2.4528 H       
  57 H57            9.7509     3.0309    -4.1028 H       
  58 H58            7.6908     4.2553    -4.5499 H       
  59 H59            6.3930     5.2444    -2.7126 H       
  60 H60           -7.9292    -0.6944    -2.1703 H       
  61 H61           -8.6513     1.6419    -1.8899 H       
  62 H62           -6.9908     3.4059    -1.4651 H       
  63 H63           -4.6003     2.8412    -1.3083 H       
  64 H64           -7.1738    -2.5167    -1.4662 H       
  65 H65           -7.0049    -2.2537    -3.2185 H       
  66 H66           -6.0197    -3.4934    -2.4056 H       
@<TRIPOS>BOND
   1    1    2 1
   2    1    6 1
   3    1    7 am
   4    2    3 1
   5    2   40 1
   6    2   41 1
   7    3    4 1
   8    3   42 1
   9    3   43 1
  10    4    5 1
  11    4   10 am
  12    5    6 1
  13    5   44 1
  14    5   45 1
  15    6   46 1
  16    6   47 1
  17    7    8 2
  18    7    9 am
  19    9   32 1
  20    9   48 1
  21   10   11 1
  22   10   17 2
  23   11   12 ar
  24   11   16 ar
  25   12   13 ar
  26   12   49 1
  27   13   14 ar
  28   13   50 1
  29   14   15 ar
  30   14   21 1
  31   15   16 ar
  32   15   51 1
  33   16   52 1
  34   18   19 2
  35   18   20 2
  36   18   21 am
  37   18   30 1
  38   21   53 1
  39   22   23 ar
  40   22   31 ar
  41   23   24 ar
  42   23   54 1
  43   24   25 ar
  44   24   55 1
  45   25   26 ar
  46   25   56 1
  47   26   27 ar
  48   26   31 ar
  49   27   28 ar
  50   27   57 1
  51   28   29 ar
  52   28   58 1
  53   29   30 ar
  54   29   59 1
  55   30   31 ar
  56   32   33 ar
  57   32   37 ar
  58   33   34 ar
  59   33   38 1
  60   34   35 ar
  61   34   60 1
  62   35   36 ar
  63   35   61 1
  64   36   37 ar
  65   36   62 1
  66   37   63 1
  67   38   39 1
  68   39   64 1
  69   39   65 1
  70   39   66 1

#	End of record

