#	Name: ASD03091016
#	Creating user name:	WinNT
#	Creation time:	15. 06. 2019 20:29

#	Modifying user name:	WinNT
#	Modification time:	15. 06. 2019 20:29

#	Program:	/corina/corina34_cracker 3.40 0067  02.08.2006

@<TRIPOS>MOLECULE
ASD03091016
  39   42    0    0    0
SMALL
NO_CHARGES


@<TRIPOS>ATOM
   1 N1            -0.0338     1.3198     0.4720 N.am    
   2 C2            -0.0064    -0.0249     0.2307 C.2     
   3 C3            -1.1211    -0.7385     0.0061 C.2     
   4 C4            -2.4215    -0.0652     0.0175 C.ar    
   5 C5            -2.4544     1.3261     0.2673 C.ar    
   6 C6            -1.1843     2.0208     0.5064 C.2     
   7 O7            -1.1693     3.2188     0.7257 O.2     
   8 C8            -3.6122    -0.7576    -0.2101 C.ar    
   9 C9            -4.8012    -0.0861    -0.1900 C.ar    
  10 C10           -4.8427     1.2868     0.0552 C.ar    
  11 C11           -3.6768     1.9965     0.2844 C.ar    
  12 N12           -6.0722     1.9510     0.0701 N.3     
  13 C13           -6.1301     2.9874    -0.9921 C.3     
  14 C14            1.2301     2.0223     0.7072 C.3     
  15 C15           -6.2504     2.7127     1.3326 C.3     
  16 C16           -7.3230     3.7717     1.0032 C.3     
  17 C17           -7.2433     3.9536    -0.5365 C.3     
  18 C18           -6.8774     5.1292     1.5856 C.3     
  19 N19           -7.1517     6.1113     0.5058 N.3     
  20 C20           -6.7571     5.4038    -0.7390 C.3     
  21 H21            0.9470    -0.5322     0.2198 H       
  22 H22           -1.0593    -1.8002    -0.1817 H       
  23 H23           -3.5931    -1.8203    -0.4018 H       
  24 H24           -5.7207    -0.6244    -0.3665 H       
  25 H25           -3.7134     3.0591     0.4738 H       
  26 H26           -5.1774     3.5121    -1.0631 H       
  27 H27           -6.3880     2.5355    -1.9499 H       
  28 H28            2.0560     1.3133     0.6493 H       
  29 H29            1.3618     2.7961    -0.0490 H       
  30 H30            1.2128     2.4799     1.6963 H       
  31 H31           -6.5989     2.0537     2.1277 H       
  32 H32           -5.3162     3.1951     1.6201 H       
  33 H33           -8.3168     3.4737     1.3373 H       
  34 H34           -8.1943     3.7535    -1.0302 H       
  35 H35           -7.4596     5.3703     2.4751 H       
  36 H36           -5.8133     5.1106     1.8208 H       
  37 H37           -8.1288     6.3622     0.4849 H       
  38 H38           -5.6744     5.4277    -0.8624 H       
  39 H39           -7.2486     5.8521    -1.6025 H       
@<TRIPOS>BOND
   1    1    2 1
   2    1   14 1
   3    1    6 am
   4    2    3 2
   5    2   21 1
   6    3    4 1
   7    3   22 1
   8    4    5 ar
   9    4    8 ar
  10    5    6 1
  11    5   11 ar
  12    6    7 2
  13    8    9 ar
  14    8   23 1
  15    9   10 ar
  16    9   24 1
  17   10   11 ar
  18   10   12 1
  19   11   25 1
  20   12   15 1
  21   12   13 1
  22   13   17 1
  23   13   26 1
  24   13   27 1
  25   14   28 1
  26   14   29 1
  27   14   30 1
  28   15   16 1
  29   15   31 1
  30   15   32 1
  31   16   17 1
  32   16   18 1
  33   16   33 1
  34   17   20 1
  35   17   34 1
  36   18   19 1
  37   18   35 1
  38   18   36 1
  39   19   20 1
  40   19   37 1
  41   20   38 1
  42   20   39 1

#	End of record

