#	Name: ASD01914921
#	Creating user name:	WinNT
#	Creation time:	15. 06. 2019 20:04

#	Modifying user name:	WinNT
#	Modification time:	15. 06. 2019 20:04

#	Program:	/corina/corina34_cracker 3.40 0067  02.08.2006

@<TRIPOS>MOLECULE
ASD01914921
  61   65    0    0    0
SMALL
NO_CHARGES


@<TRIPOS>ATOM
   1 C1             0.0140     1.9609     0.7071 C.2     
   2 N2            -0.0756     0.6699     0.9497 N.2     
   3 C3             1.2914     2.2241     0.1844 C.2     
   4 C4             1.9676     1.0410     0.1218 C.2     
   5 N5             1.1368     0.0671     0.5917 N.pl3   
   6 C6            -1.0538     2.9654     0.9398 C.ar    
   7 C7            -2.2841     2.5699     1.4604 C.ar    
   8 C8            -3.2735     3.5080     1.6748 C.ar    
   9 C9            -3.0456     4.8386     1.3733 C.ar    
  10 C10           -1.8260     5.2366     0.8562 C.ar    
  11 C11           -0.8274     4.3077     0.6437 C.ar    
  12 C12            3.3512     0.8494    -0.3672 C.ar    
  13 C13            3.9186     1.7741    -1.2441 C.ar    
  14 C14            5.2090     1.5898    -1.6964 C.ar    
  15 C15            5.9400     0.4908    -1.2821 C.ar    
  16 C16            5.3828    -0.4301    -0.4130 C.ar    
  17 C17            4.0955    -0.2537     0.0514 C.ar    
  18 C18            1.4563    -1.3583     0.7028 C.3     
  19 C19            1.9638    -1.6526     2.0910 C.2     
  20 N20            2.3218    -2.9081     2.4255 N.am    
  21 O21            2.0501    -0.7596     2.9071 O.2     
  22 C22            2.8215    -3.2291     3.7731 C.3     
  23 C23            1.8613    -4.2347     4.4115 C.3     
  24 N24            1.5440    -5.3088     3.4803 N.am    
  25 C25            1.6603    -5.2205     2.1545 C.2     
  26 C26            2.2234    -4.0143     1.4616 C.3     
  27 C27            1.0855    -6.5181     4.0141 C.ar    
  28 C28            1.8772    -7.6567     3.9372 C.ar    
  29 C29           -0.1587    -6.5803     4.6261 C.ar    
  30 C30           -0.6095    -7.7799     5.1535 C.ar    
  31 C31            0.1836    -8.9159     5.0687 C.ar    
  32 C32            1.4244    -8.8509     4.4642 C.ar    
  33 O33            1.2903    -6.1565     1.4778 O.2     
  34 O34           -1.8270    -7.8440     5.7537 O.3     
  35 C35           -2.2274    -9.1128     6.2750 C.3     
  36 H36            1.6700     3.1903    -0.1147 H       
  37 H37           -2.4633     1.5312     1.6955 H       
  38 H38           -4.2276     3.2026     2.0783 H       
  39 H39           -3.8228     5.5693     1.5420 H       
  40 H40           -1.6532     6.2768     0.6226 H       
  41 H41            0.1246     4.6196     0.2403 H       
  42 H42            3.3488     2.6323    -1.5685 H       
  43 H43            5.6492     2.3049    -2.3756 H       
  44 H44            6.9496     0.3509    -1.6389 H       
  45 H45            5.9582    -1.2865    -0.0937 H       
  46 H46            3.6617    -0.9731     0.7301 H       
  47 H47            0.5596    -1.9477     0.5113 H       
  48 H48            2.2236    -1.6167    -0.0269 H       
  49 H49            3.8175    -3.6660     3.7016 H       
  50 H50            2.8594    -2.3225     4.3769 H       
  51 H51            2.3252    -4.6577     5.3025 H       
  52 H52            0.9419    -3.7226     4.6952 H       
  53 H53            1.5697    -3.7283     0.6376 H       
  54 H54            3.2175    -4.2444     1.0784 H       
  55 H55            2.8473    -7.6086     3.4649 H       
  56 H56           -0.7743    -5.6953     4.6914 H       
  57 H57           -0.1675    -9.8508     5.4801 H       
  58 H58            2.0394    -9.7363     4.3992 H       
  59 H59           -2.2604    -9.8436     5.4669 H       
  60 H60           -1.5113    -9.4379     7.0298 H       
  61 H61           -3.2158    -9.0249     6.7260 H       
@<TRIPOS>BOND
   1    1    2 2
   2    1    3 1
   3    1    6 1
   4    2    5 1
   5    3    4 2
   6    3   36 1
   7    4    5 1
   8    4   12 1
   9    5   18 1
  10    6    7 ar
  11    6   11 ar
  12    7    8 ar
  13    7   37 1
  14    8    9 ar
  15    8   38 1
  16    9   10 ar
  17    9   39 1
  18   10   11 ar
  19   10   40 1
  20   11   41 1
  21   12   13 ar
  22   12   17 ar
  23   13   14 ar
  24   13   42 1
  25   14   15 ar
  26   14   43 1
  27   15   16 ar
  28   15   44 1
  29   16   17 ar
  30   16   45 1
  31   17   46 1
  32   18   19 1
  33   18   47 1
  34   18   48 1
  35   19   20 am
  36   19   21 2
  37   20   22 1
  38   20   26 1
  39   22   23 1
  40   22   49 1
  41   22   50 1
  42   23   24 1
  43   23   51 1
  44   23   52 1
  45   24   25 am
  46   24   27 1
  47   25   26 1
  48   25   33 2
  49   26   53 1
  50   26   54 1
  51   27   28 ar
  52   27   29 ar
  53   28   32 ar
  54   28   55 1
  55   29   30 ar
  56   29   56 1
  57   30   31 ar
  58   30   34 1
  59   31   32 ar
  60   31   57 1
  61   32   58 1
  62   34   35 1
  63   35   59 1
  64   35   60 1
  65   35   61 1

#	End of record

