#	Name: ASD04940011
#	Creating user name:	WinNT
#	Creation time:	15. 06. 2019 20:56

#	Modifying user name:	WinNT
#	Modification time:	15. 06. 2019 20:56

#	Program:	/corina/corina34_cracker 3.40 0067  02.08.2006

@<TRIPOS>MOLECULE
ASD04940011
  51   54    0    0    0
SMALL
NO_CHARGES


@<TRIPOS>ATOM
   1 C1            -0.0166     1.3736     0.0096 C.ar    
   2 C2             0.0021    -0.0041     0.0020 C.ar    
   3 C3             1.2096    -0.6868    -0.0127 C.ar    
   4 C4             2.4043    -0.0005    -0.0200 C.ar    
   5 C5             2.4071     1.3912    -0.0130 C.ar    
   6 C6             1.1841     2.0802     0.0019 C.ar    
   7 N7             3.4235     2.3258    -0.0174 N.pl3   
   8 C8             2.9120     3.5878    -0.0064 C.2     
   9 C9             1.5208     3.5161     0.0064 C.2     
  10 C10            0.6150     4.6004     0.0202 C.2     
  11 O11            1.0329     5.7408     0.0220 O.2     
  12 C12           -0.8696     4.3418     0.0327 C.3     
  13 N13           -1.5895     5.6223     0.0457 N.3     
  14 C14            3.7047     4.8323    -0.0068 C.ar    
  15 C15            4.7945     4.9701    -0.8702 C.ar    
  16 C16            5.5306     6.1365    -0.8654 C.ar    
  17 C17            5.1919     7.1688    -0.0082 C.ar    
  18 C18            4.1138     7.0393     0.8496 C.ar    
  19 C19            3.3654     5.8808     0.8520 C.ar    
  20 C20           -3.0429     5.4090     0.0581 C.3     
  21 C21           -3.7461     6.7418     0.0713 C.2     
  22 N22           -5.0928     6.7931     0.0840 N.am    
  23 O23           -3.1001     7.7683     0.0704 O.2     
  24 C24           -5.8017     8.0825     0.0970 C.3     
  25 C25           -6.8548     8.0665    -1.0168 C.3     
  26 O26           -7.6642     6.8957    -0.8825 O.3     
  27 C27           -6.9462     5.6681    -1.0283 C.3     
  28 C28           -5.8978     5.5613     0.0792 C.3     
  29 H29           -0.9577     1.9033     0.0169 H       
  30 H30           -0.9271    -0.5546     0.0079 H       
  31 H31            1.2132    -1.7668    -0.0182 H       
  32 H32            3.3385    -0.5424    -0.0307 H       
  33 H33            4.3699     2.1131    -0.0267 H       
  34 H34           -1.1477     3.7777    -0.8576 H       
  35 H35           -1.1311     3.7689     0.9223 H       
  36 H36           -1.3008     6.1915     0.8273 H       
  37 H37            5.0601     4.1651    -1.5394 H       
  38 H38            6.3735     6.2443    -1.5319 H       
  39 H39            5.7721     8.0797    -0.0085 H       
  40 H40            3.8554     7.8489     1.5161 H       
  41 H41            2.5215     5.7829     1.5189 H       
  42 H42           -3.3360     4.8523    -0.8319 H       
  43 H43           -3.3195     4.8435     0.9479 H       
  44 H44           -6.2895     8.2236     1.0615 H       
  45 H45           -5.0937     8.8924    -0.0788 H       
  46 H46           -7.4825     8.9541    -0.9372 H       
  47 H47           -6.3584     8.0566    -1.9872 H       
  48 H48           -7.6397     4.8301    -0.9570 H       
  49 H49           -6.4501     5.6495    -1.9987 H       
  50 H50           -5.2535     4.7024    -0.1084 H       
  51 H51           -6.3955     5.4442     1.0418 H       
@<TRIPOS>BOND
   1    1    2 ar
   2    1    6 ar
   3    1   29 1
   4    2    3 ar
   5    2   30 1
   6    3    4 ar
   7    3   31 1
   8    4    5 ar
   9    4   32 1
  10    5    7 1
  11    5    6 ar
  12    6    9 1
  13    7    8 1
  14    7   33 1
  15    8    9 2
  16    8   14 1
  17    9   10 1
  18   10   11 2
  19   10   12 1
  20   12   13 1
  21   12   34 1
  22   12   35 1
  23   13   20 1
  24   13   36 1
  25   14   15 ar
  26   14   19 ar
  27   15   16 ar
  28   15   37 1
  29   16   17 ar
  30   16   38 1
  31   17   18 ar
  32   17   39 1
  33   18   19 ar
  34   18   40 1
  35   19   41 1
  36   20   21 1
  37   20   42 1
  38   20   43 1
  39   21   22 am
  40   21   23 2
  41   22   24 1
  42   22   28 1
  43   24   25 1
  44   24   44 1
  45   24   45 1
  46   25   26 1
  47   25   46 1
  48   25   47 1
  49   26   27 1
  50   27   28 1
  51   27   48 1
  52   27   49 1
  53   28   50 1
  54   28   51 1

#	End of record

