#	Name: ASD09740538
#	Creating user name:	WinNT
#	Creation time:	15. 06. 2019 21:23

#	Modifying user name:	WinNT
#	Modification time:	15. 06. 2019 21:23

#	Program:	/corina/corina34_cracker 3.40 0067  02.08.2006

@<TRIPOS>MOLECULE
ASD09740538
  66   70    0    0    0
SMALL
NO_CHARGES


@<TRIPOS>ATOM
   1 N1            -0.2072     1.3558     0.3931 N.2     
   2 C2            -0.2195     0.0468     0.3519 C.2     
   3 C3             0.9578     1.9406     0.4033 C.2     
   4 S4             2.2227     0.7155     0.3559 S.3     
   5 C5             0.9935    -0.5473     0.3247 C.2     
   6 C6             1.1819     3.4004     0.4469 C.ar    
   7 C7             0.0954     4.2711     0.4817 C.ar    
   8 C8             2.4847     3.9076     0.4592 C.ar    
   9 C9             2.6996     5.2684     0.5003 C.ar    
  10 C10            1.6246     6.1452     0.5303 C.ar    
  11 C11            0.3128     5.6473     0.5233 C.ar    
  12 O12            1.8420     7.4836     0.5716 O.3     
  13 C13            3.1975     7.9171     0.7010 C.3     
  14 C14            3.8489     7.9740    -0.6822 C.3     
  15 C15            3.2296     9.3080     1.3375 C.3     
  16 C16           -0.7985     6.5499     0.5537 C.1     
  17 N17           -1.6802     7.2658     0.5779 N.1     
  18 C18            1.2459    -2.0028     0.2772 C.ar    
  19 C19            2.1250    -2.5299    -0.6734 C.ar    
  20 C20            2.3562    -3.8896    -0.7126 C.ar    
  21 C21            1.7173    -4.7262     0.1894 C.ar    
  22 C22            0.8468    -4.2097     1.1312 C.ar    
  23 C23            0.6116    -2.8517     1.1845 C.ar    
  24 C24            2.9331    -1.8404    -1.7514 C.3     
  25 C25            4.0103    -2.8653    -2.1658 C.3     
  26 C26            3.3366    -4.2104    -1.8208 C.3     
  27 N27            2.6281    -4.7385    -2.9892 N.am    
  28 C28            2.4071    -6.0633    -3.1013 C.2     
  29 N29            1.6657    -6.5389    -4.1214 N.am    
  30 O30            2.8765    -6.8294    -2.2821 O.2     
  31 C31            1.1846    -5.6404    -5.1797 C.3     
  32 C32           -0.3329    -5.8025    -5.3120 C.3     
  33 C33           -0.6663    -7.2785    -5.5410 C.3     
  34 C34           -0.1955    -8.1018    -4.3399 C.3     
  35 C35            1.3284    -7.9668    -4.1996 C.3     
  36 O36           -2.0788    -7.4289    -5.6970 O.3     
  37 H37           -1.1386    -0.5202     0.3409 H       
  38 H38           -0.9119     3.8814     0.4761 H       
  39 H39            3.3259     3.2306     0.4367 H       
  40 H40            3.7085     5.6537     0.5096 H       
  41 H41            3.7444     7.2162     1.3317 H       
  42 H42            4.8829     8.3047    -0.5835 H       
  43 H43            3.8261     6.9831    -1.1357 H       
  44 H44            3.3020     8.6749    -1.3128 H       
  45 H45            2.7655     9.2675     2.3230 H       
  46 H46            4.2635     9.6387     1.4362 H       
  47 H47            2.6826    10.0089     0.7069 H       
  48 H48            1.9008    -5.7899     0.1559 H       
  49 H49            0.3537    -4.8702     1.8292 H       
  50 H50           -0.0681    -2.4479     1.9203 H       
  51 H51            2.2974    -1.5950    -2.6021 H       
  52 H52            3.4010    -0.9391    -1.3553 H       
  53 H53            4.2183    -2.7987    -3.2337 H       
  54 H54            4.9211    -2.7273    -1.5831 H       
  55 H55            4.0800    -4.9273    -1.4723 H       
  56 H56            2.3180    -4.1348    -3.6822 H       
  57 H57            1.4206    -4.6088    -4.9184 H       
  58 H58            1.6634    -5.8990    -6.1242 H       
  59 H59           -0.8167    -5.4578    -4.3980 H       
  60 H60           -0.6894    -5.2136    -6.1571 H       
  61 H61           -0.1623    -7.6291    -6.4416 H       
  62 H62           -0.6805    -7.7355    -3.4351 H       
  63 H63           -0.4541    -9.1495    -4.4932 H       
  64 H64            1.8162    -8.4162    -5.0645 H       
  65 H65            1.6575    -8.4691    -3.2899 H       
  66 H66           -2.3631    -8.3410    -5.8460 H       
@<TRIPOS>BOND
   1    1    2 1
   2    1    3 2
   3    2    5 2
   4    2   37 1
   5    3    4 1
   6    3    6 1
   7    4    5 1
   8    5   18 1
   9    6    7 ar
  10    6    8 ar
  11    7   11 ar
  12    7   38 1
  13    8    9 ar
  14    8   39 1
  15    9   10 ar
  16    9   40 1
  17   10   11 ar
  18   10   12 1
  19   11   16 1
  20   12   13 1
  21   13   14 1
  22   13   15 1
  23   13   41 1
  24   14   42 1
  25   14   43 1
  26   14   44 1
  27   15   45 1
  28   15   46 1
  29   15   47 1
  30   16   17 3
  31   18   19 ar
  32   18   23 ar
  33   19   20 ar
  34   19   24 1
  35   20   21 ar
  36   20   26 1
  37   21   22 ar
  38   21   48 1
  39   22   23 ar
  40   22   49 1
  41   23   50 1
  42   24   25 1
  43   24   51 1
  44   24   52 1
  45   25   26 1
  46   25   53 1
  47   25   54 1
  48   26   27 1
  49   26   55 1
  50   27   28 am
  51   27   56 1
  52   28   29 am
  53   28   30 2
  54   29   31 1
  55   29   35 1
  56   31   32 1
  57   31   57 1
  58   31   58 1
  59   32   33 1
  60   32   59 1
  61   32   60 1
  62   33   34 1
  63   33   36 1
  64   33   61 1
  65   34   35 1
  66   34   62 1
  67   34   63 1
  68   35   64 1
  69   35   65 1
  70   36   66 1

#	End of record

