#	Name: ASD02560263
#	Creating user name:	WinNT
#	Creation time:	15. 06. 2019 20:24

#	Modifying user name:	WinNT
#	Modification time:	15. 06. 2019 20:24

#	Program:	/corina/corina34_cracker 3.40 0067  02.08.2006

@<TRIPOS>MOLECULE
ASD02560263
  52   54    0    0    0
SMALL
NO_CHARGES


@<TRIPOS>ATOM
   1 N1             0.4645     1.3221    -0.0982 N.ar    
   2 C2             0.4530    -0.0062    -0.0971 C.ar    
   3 C3             1.6475    -0.6916     0.1174 C.ar    
   4 C4             2.7995     0.0449     0.3210 C.ar    
   5 N5             2.7314     1.3680     0.3057 N.ar    
   6 C6             1.5854     1.9856     0.1000 C.ar    
   7 O7            -0.7025    -0.6845    -0.3009 O.3     
   8 C8            -1.8362     0.0343    -0.5042 C.ar    
   9 C9            -4.1497     1.5018    -0.9191 C.ar    
  10 C10           -3.7737     1.1377     0.3768 C.ar    
  11 C11           -2.6226     0.4089     0.5786 C.ar    
  12 C12           -2.2038     0.3984    -1.7940 C.ar    
  13 C13           -3.3529     1.1280    -2.0047 C.ar    
  14 C14           -2.2157     0.0165     1.9756 C.3     
  15 C15           -1.3438    -0.0053    -2.9638 C.3     
  16 C16           -5.3457     2.2596    -1.1335 C.1     
  17 N17           -6.2945     2.8607    -1.3037 N.1     
  18 S18            1.5516     3.7473     0.0892 S.o2    
  19 C19            1.2344     4.2045     1.8157 C.3     
  20 C20            1.1824     5.7058     1.9364 C.2     
  21 N21            0.9569     6.2780     3.1356 N.am    
  22 C22            1.0053     7.6721     3.2668 C.ar    
  23 O23            1.3435     6.3991     0.9543 O.2     
  24 C24            1.5568     9.6175     4.5562 C.ar    
  25 C25            1.5088     8.2434     4.4278 C.ar    
  26 C26            0.5552     8.4830     2.2335 C.ar    
  27 C27            0.6037     9.8570     2.3633 C.ar    
  28 C28            1.1020    10.4270     3.5256 C.ar    
  29 O29            2.8687     4.1207    -0.2916 O.2     
  30 O30            0.4336     4.0713    -0.7259 O.2     
  31 O31            1.1490    11.7800     3.6529 O.3     
  32 C32            0.6641    12.5523     2.5528 C.3     
  33 H33            1.6725    -1.7713     0.1248 H       
  34 H34            3.7433    -0.4520     0.4907 H       
  35 H35           -4.3867     1.4246     1.2184 H       
  36 H36           -3.6399     1.4074    -3.0077 H       
  37 H37           -2.6542    -0.9500     2.2238 H       
  38 H38           -1.1293    -0.0522     2.0318 H       
  39 H39           -2.5693     0.7679     2.6816 H       
  40 H40           -1.6725    -0.9744    -3.3391 H       
  41 H41           -1.4329     0.7397    -3.7545 H       
  42 H42           -0.3040    -0.0732    -2.6440 H       
  43 H43            0.2819     3.7812     2.1346 H       
  44 H44            2.0339     3.8167     2.4471 H       
  45 H45            0.7610     5.7247     3.9079 H       
  46 H46            1.9481    10.0620     5.4594 H       
  47 H47            1.8626     7.6132     5.2304 H       
  48 H48            0.1675     8.0393     1.3284 H       
  49 H49            0.2539    10.4878     1.5595 H       
  50 H50            0.7585    13.6133     2.7841 H       
  51 H51            1.2478    12.3215     1.6616 H       
  52 H52           -0.3836    12.3113     2.3734 H       
@<TRIPOS>BOND
   1    1    2 ar
   2    1    6 ar
   3    2    3 ar
   4    2    7 1
   5    3    4 ar
   6    3   33 1
   7    4    5 ar
   8    4   34 1
   9    5    6 ar
  10    6   18 1
  11    7    8 1
  12    8   12 ar
  13    8   11 ar
  14    9   10 ar
  15    9   13 ar
  16    9   16 1
  17   10   11 ar
  18   10   35 1
  19   11   14 1
  20   12   13 ar
  21   12   15 1
  22   13   36 1
  23   14   37 1
  24   14   38 1
  25   14   39 1
  26   15   40 1
  27   15   41 1
  28   15   42 1
  29   16   17 3
  30   18   19 1
  31   18   29 2
  32   18   30 2
  33   19   20 1
  34   19   43 1
  35   19   44 1
  36   20   21 am
  37   20   23 2
  38   21   22 1
  39   21   45 1
  40   22   26 ar
  41   22   25 ar
  42   24   25 ar
  43   24   28 ar
  44   24   46 1
  45   25   47 1
  46   26   27 ar
  47   26   48 1
  48   27   28 ar
  49   27   49 1
  50   28   31 1
  51   31   32 1
  52   32   50 1
  53   32   51 1
  54   32   52 1

#	End of record

