#	Name: ASD08070092
#	Creating user name:	WinNT
#	Creation time:	15. 06. 2019 21:14

#	Modifying user name:	WinNT
#	Modification time:	15. 06. 2019 21:14

#	Program:	/corina/corina34_cracker 3.40 0067  02.08.2006

@<TRIPOS>MOLECULE
ASD08070092
  40   41    0    0    0
SMALL
NO_CHARGES


@<TRIPOS>ATOM
   1 C1            -0.0166     1.3733     0.0096 C.ar    
   2 C2             0.0021    -0.0041     0.0020 C.ar    
   3 C3             1.1757     2.0864     0.0020 C.ar    
   4 C4             2.3930     1.4131    -0.0132 C.ar    
   5 C5             2.4198     0.0356    -0.0214 C.ar    
   6 C6             1.2220    -0.6846    -0.0133 C.ar    
   7 C7             1.2460    -2.1604    -0.0215 C.2     
   8 O8             2.3086    -2.7511    -0.0353 O.2     
   9 C9             0.1137    -4.3179    -0.0219 C.3     
  10 N10            0.0899    -2.8532    -0.0137 N.am    
  11 C11           -1.1597    -4.8444     0.5885 C.ar    
  12 C12           -1.1205    -5.9439     1.4259 C.ar    
  13 O13            1.1528     3.4435     0.0091 O.3     
  14 C14           -0.1311     4.0707     0.0244 C.3     
  15 Cl15           3.8797     2.3094    -0.0226 Cl      
  16 C16           -2.3644    -4.2236     0.3147 C.ar    
  17 C17           -2.2863    -6.4284     1.9867 C.ar    
  18 C18           -3.4971    -5.8105     1.7093 C.ar    
  19 C19           -3.5330    -4.7039     0.8733 C.ar    
  20 O20           -4.6454    -6.2855     2.2594 O.3     
  21 C21           -5.8548    -5.5996     1.9297 C.3     
  22 C22            0.2333    -4.8181    -1.4629 C.3     
  23 H23           -0.9596     1.8996     0.0169 H       
  24 H24           -0.9254    -0.5573     0.0083 H       
  25 H25            3.3649    -0.4869    -0.0336 H       
  26 H26            0.9671    -4.6707     0.5572 H       
  27 H27           -0.7578    -2.3819    -0.0027 H       
  28 H28           -0.1777    -6.4246     1.6415 H       
  29 H29           -0.6747     3.7639     0.9179 H       
  30 H30           -0.0065     5.1535     0.0287 H       
  31 H31           -0.6914     3.7729    -0.8619 H       
  32 H32           -2.3918    -3.3621    -0.3361 H       
  33 H33           -2.2553    -7.2877     2.6401 H       
  34 H34           -4.4742    -4.2209     0.6562 H       
  35 H35           -5.7831    -4.5610     2.2527 H       
  36 H36           -6.0102    -5.6348     0.8514 H       
  37 H37           -6.6938    -6.0797     2.4335 H       
  38 H38            1.1543    -4.4373    -1.9043 H       
  39 H39            0.2510    -5.9079    -1.4689 H       
  40 H40           -0.6202    -4.4653    -2.0419 H       
@<TRIPOS>BOND
   1    1    2 ar
   2    1    3 ar
   3    1   23 1
   4    2    6 ar
   5    2   24 1
   6    3    4 ar
   7    3   13 1
   8    4    5 ar
   9    4   15 1
  10    5    6 ar
  11    5   25 1
  12    6    7 1
  13    7    8 2
  14    7   10 am
  15    9   11 1
  16    9   10 1
  17    9   22 1
  18    9   26 1
  19   10   27 1
  20   11   12 ar
  21   11   16 ar
  22   12   17 ar
  23   12   28 1
  24   13   14 1
  25   14   29 1
  26   14   30 1
  27   14   31 1
  28   16   19 ar
  29   16   32 1
  30   17   18 ar
  31   17   33 1
  32   18   19 ar
  33   18   20 1
  34   19   34 1
  35   20   21 1
  36   21   35 1
  37   21   36 1
  38   21   37 1
  39   22   38 1
  40   22   39 1
  41   22   40 1

#	End of record

