#	Name: ASD08150893
#	Creating user name:	WinNT
#	Creation time:	15. 06. 2019 21:16

#	Modifying user name:	WinNT
#	Modification time:	15. 06. 2019 21:16

#	Program:	/corina/corina34_cracker 3.40 0067  02.08.2006

@<TRIPOS>MOLECULE
ASD08150893
  46   50    0    0    0
SMALL
NO_CHARGES


@<TRIPOS>ATOM
   1 N1             3.9868     3.0016     2.9896 N.2     
   2 C2             4.9576     2.3026     3.5020 C.2     
   3 N3             5.9991     2.2390     2.6249 N.pl3   
   4 C4             5.6380     2.9456     1.5056 C.ar    
   5 N5             6.2222     3.2302     0.3465 N.ar    
   6 C6             5.5993     3.9554    -0.5586 C.ar    
   7 N7             4.3825     4.4324    -0.3700 N.ar    
   8 C8             3.7192     4.1996     0.7580 C.ar    
   9 C9             4.3425     3.4298     1.7545 C.ar    
  10 N10            2.4444     4.7041     0.9467 N.pl3   
  11 C11            1.8108     5.5052    -0.1035 C.3     
  12 C12            1.1872     4.5764    -1.1472 C.3     
  13 C13            1.0917     7.5056     1.2119 C.ar    
  14 C14            0.7371     6.3709     0.5039 C.ar    
  15 C15           -0.5992     6.0214     0.3467 C.ar    
  16 C16           -1.5941     6.7821     0.8824 C.ar    
  17 C17           -1.2790     7.9430     1.6090 C.ar    
  18 C18           -2.2870     8.7458     2.1711 C.ar    
  19 C19           -1.9468     9.8639     2.8687 C.ar    
  20 C20           -0.6118    10.2268     3.0347 C.ar    
  21 C21            0.3902     9.4726     2.5034 C.ar    
  22 C22            0.0775     8.3132     1.7790 C.ar    
  23 C23            3.2794     8.2753     0.2840 C.ar    
  24 C24            2.5183     7.8680     1.3795 C.ar    
  25 C25            3.1234     7.8077     2.6384 C.ar    
  26 C26            4.4608     8.1577     2.7419 C.ar    
  27 C27            5.1472     8.5518     1.6049 C.ar    
  28 N28            4.5475     8.5987     0.4309 N.ar    
  29 F29            5.0876     8.1152     3.9379 F       
  30 H30            4.9407     1.8413     4.4784 H       
  31 H31            6.8412     1.7788     2.7662 H       
  32 H32            6.1025     4.1685    -1.4902 H       
  33 H33            1.9705     4.5273     1.7744 H       
  34 H34            2.5601     6.1368    -0.5807 H       
  35 H35            0.6236     5.1674    -1.8691 H       
  36 H36            1.9756     4.0281    -1.6629 H       
  37 H37            0.5181     3.8719    -0.6531 H       
  38 H38           -0.8530     5.1315    -0.2102 H       
  39 H39           -2.6260     6.4930     0.7483 H       
  40 H40           -3.3259     8.4769     2.0496 H       
  41 H41           -2.7229    10.4790     3.2995 H       
  42 H42           -0.3682    11.1190     3.5923 H       
  43 H43            1.4207     9.7659     2.6395 H       
  44 H44            2.8256     8.3220    -0.6949 H       
  45 H45            2.5632     7.4970     3.5080 H       
  46 H46            6.1892     8.8252     1.6810 H       
@<TRIPOS>BOND
   1    1    2 2
   2    1    9 1
   3    2    3 1
   4    2   30 1
   5    3    4 1
   6    3   31 1
   7    4    5 ar
   8    4    9 ar
   9    5    6 ar
  10    6    7 ar
  11    6   32 1
  12    7    8 ar
  13    8    9 ar
  14    8   10 1
  15   10   11 1
  16   10   33 1
  17   11   12 1
  18   11   14 1
  19   11   34 1
  20   12   35 1
  21   12   36 1
  22   12   37 1
  23   13   14 ar
  24   13   22 ar
  25   13   24 1
  26   14   15 ar
  27   15   16 ar
  28   15   38 1
  29   16   17 ar
  30   16   39 1
  31   17   18 ar
  32   17   22 ar
  33   18   19 ar
  34   18   40 1
  35   19   20 ar
  36   19   41 1
  37   20   21 ar
  38   20   42 1
  39   21   22 ar
  40   21   43 1
  41   23   24 ar
  42   23   28 ar
  43   23   44 1
  44   24   25 ar
  45   25   26 ar
  46   25   45 1
  47   26   27 ar
  48   26   29 1
  49   27   28 ar
  50   27   46 1

#	End of record

