#	Name: ASD05430198
#	Creating user name:	WinNT
#	Creation time:	15. 06. 2019 20:59

#	Modifying user name:	WinNT
#	Modification time:	15. 06. 2019 20:59

#	Program:	/corina/corina34_cracker 3.40 0067  02.08.2006

@<TRIPOS>MOLECULE
ASD05430198
  63   68    0    0    0
SMALL
NO_CHARGES


@<TRIPOS>ATOM
   1 C1             0.1419     1.2238    -0.9469 C.ar    
   2 C2             0.0192    -0.0131    -0.3147 C.ar    
   3 C3             1.0830    -0.5347     0.4103 C.ar    
   4 C4             2.2646     0.1672     0.5077 C.ar    
   5 C5             2.3951     1.4081    -0.1242 C.ar    
   6 C6             1.3241     1.9334    -0.8535 C.ar    
   7 C7             4.9338    -0.0063    -0.1070 C.3     
   8 C8             4.8270     1.5012     0.0670 C.2     
   9 C9             3.6566     2.1597    -0.0208 C.2     
  10 C10            6.1281    -0.2979    -1.0234 C.3     
  11 C11            7.4797     0.2709    -0.5849 C.3     
  12 N12            7.3198     1.6255    -0.0740 N.pl3   
  13 C13            6.1097     2.1881     0.3409 C.2     
  14 C14           -0.7041     3.0009    -2.2813 C.3     
  15 O15           -0.8996     1.7290    -1.6600 O.3     
  16 N16           -1.1804    -0.7313    -0.4105 N.pl3   
  17 C17           -2.4291    -0.2530    -0.1717 C.2     
  18 C18           -1.3157    -2.0476    -0.7688 C.2     
  19 C19           -2.6323    -2.3284    -0.7321 C.2     
  20 N20           -3.2875    -1.2170    -0.3654 N.2     
  21 C21           -3.2611    -3.6600    -1.0522 C.3     
  22 C22           -1.9751     3.4022    -3.0326 C.3     
  23 C23            6.1367    -1.6450    -1.7512 C.3     
  24 C24            5.8505    -0.3589    -2.5286 C.3     
  25 C25            8.3329     2.6703     0.1061 C.3     
  26 O26            7.7036     3.5832     1.0294 O.3     
  27 N27            6.3120     3.3043     0.9555 N.2     
  28 C28            9.5914     2.0941     0.7022 C.2     
  29 O29           10.6352     2.1716     0.0999 O.2     
  30 C30            8.6282     3.3565    -1.2027 C.ar    
  31 C31            9.1197     4.6486    -1.2097 C.ar    
  32 C32            8.4126     2.6914    -2.3953 C.ar    
  33 C33            8.6839     3.3193    -3.5962 C.ar    
  34 C34            9.1712     4.6152    -3.6045 C.ar    
  35 C35            9.3912     5.2787    -2.4093 C.ar    
  36 F36            9.4367     5.2301    -4.7779 F       
  37 H37            0.9836    -1.4927     0.8990 H       
  38 H38            3.0900    -0.2407     1.0724 H       
  39 H39            1.4208     2.8911    -1.3432 H       
  40 H40            5.0904    -0.4785     0.8628 H       
  41 H41            4.0199    -0.3900    -0.5604 H       
  42 H42            3.6429     3.2396    -0.0154 H       
  43 H43            7.9005    -0.3618     0.1966 H       
  44 H44            8.1585     0.2850    -1.4376 H       
  45 H45           -0.4817     3.7474    -1.5188 H       
  46 H46            0.1281     2.9387    -2.9825 H       
  47 H47           -2.6711     0.7558     0.1286 H       
  48 H48           -0.5194    -2.7286    -1.0303 H       
  49 H49           -3.3260    -4.2589    -0.1438 H       
  50 H50           -4.2614    -3.5020    -1.4554 H       
  51 H51           -2.6508    -4.1824    -1.7889 H       
  52 H52           -1.8260     4.3724    -3.5065 H       
  53 H53           -2.1975     2.6557    -3.7951 H       
  54 H54           -2.8073     3.4644    -2.3314 H       
  55 H55            7.1024    -2.1248    -1.9103 H       
  56 H56            5.3004    -2.3201    -1.5700 H       
  57 H57            4.8259    -0.1878    -2.8587 H       
  58 H58            6.6280     0.0075    -3.1989 H       
  59 H59            9.5597     1.6118     1.6680 H       
  60 H60            9.2912     5.1659    -0.2773 H       
  61 H61            8.0325     1.6805    -2.3885 H       
  62 H62            8.5161     2.7992    -4.5277 H       
  63 H63            9.7710     6.2897    -2.4147 H       
@<TRIPOS>BOND
   1    1    2 ar
   2    1    6 ar
   3    1   15 1
   4    2    3 ar
   5    2   16 1
   6    3    4 ar
   7    3   37 1
   8    4    5 ar
   9    4   38 1
  10    5    6 ar
  11    5    9 1
  12    6   39 1
  13    7    8 1
  14    7   10 1
  15    7   40 1
  16    7   41 1
  17    8    9 2
  18    8   13 1
  19    9   42 1
  20   10   11 1
  21   10   23 1
  22   10   24 1
  23   11   12 1
  24   11   43 1
  25   11   44 1
  26   12   13 1
  27   12   25 1
  28   13   27 2
  29   14   15 1
  30   14   22 1
  31   14   45 1
  32   14   46 1
  33   16   17 1
  34   16   18 1
  35   17   20 2
  36   17   47 1
  37   18   19 2
  38   18   48 1
  39   19   20 1
  40   19   21 1
  41   21   49 1
  42   21   50 1
  43   21   51 1
  44   22   52 1
  45   22   53 1
  46   22   54 1
  47   23   24 1
  48   23   55 1
  49   23   56 1
  50   24   57 1
  51   24   58 1
  52   25   26 1
  53   25   28 1
  54   25   30 1
  55   26   27 1
  56   28   29 2
  57   28   59 1
  58   30   31 ar
  59   30   32 ar
  60   31   35 ar
  61   31   60 1
  62   32   33 ar
  63   32   61 1
  64   33   34 ar
  65   33   62 1
  66   34   35 ar
  67   34   36 1
  68   35   63 1

#	End of record

