#	Name: ASD08830134
#	Creating user name:	WinNT
#	Creation time:	15. 06. 2019 21:19

#	Modifying user name:	WinNT
#	Modification time:	15. 06. 2019 21:19

#	Program:	/corina/corina34_cracker 3.40 0067  02.08.2006

@<TRIPOS>MOLECULE
ASD08830134
  36   37    0    0    0
SMALL
NO_CHARGES


@<TRIPOS>ATOM
   1 C1            -0.0179     1.4674     0.0101 C.ar    
   2 C2             0.0021    -0.0041     0.0020 C.2     
   3 C3            -1.2926    -0.7753     0.0102 C.3     
   4 C4            -0.9927    -2.2755    -0.0007 C.3     
   5 N5            -2.2547    -3.0273     0.0073 N.3     
   6 O6             1.0602    -0.5960    -0.0113 O.2     
   7 C7             1.1813     2.1866     0.0025 C.ar    
   8 C8            -0.0554     4.2372     0.0244 C.ar    
   9 C9            -1.2469     3.5325     0.0266 C.ar    
  10 C10           -1.2365     2.1539     0.0196 C.ar    
  11 C11           -2.0181    -4.4568    -0.2410 C.3     
  12 C12           -3.3490    -5.2097    -0.1649 C.3     
  13 O13           -4.2665    -4.6418    -1.1035 O.3     
  14 C14           -4.5205    -3.2506    -0.8906 C.3     
  15 C15           -3.2015    -2.4779    -0.9741 C.3     
  16 C16            1.1543     3.5654     0.0097 C.ar    
  17 C17            2.4454     4.3425     0.0021 C.3     
  18 F18            2.8332     4.5896    -1.3192 F       
  19 F19            2.2619     5.5583     0.6693 F       
  20 F20            3.4398     3.6009     0.6489 F       
  21 H21           -1.8592    -0.5245     0.9070 H       
  22 H22           -1.8762    -0.5150    -0.8728 H       
  23 H23           -0.4261    -2.5263    -0.8975 H       
  24 H24           -0.4091    -2.5358     0.8824 H       
  25 H25            2.1262     1.6637    -0.0086 H       
  26 H26           -0.0701     5.3171     0.0296 H       
  27 H27           -2.1870     4.0640     0.0385 H       
  28 H28           -2.1669     1.6055     0.0210 H       
  29 H29           -1.5824    -4.5869    -1.2316 H       
  30 H30           -1.3346    -4.8488     0.5123 H       
  31 H31           -3.1869    -6.2606    -0.4046 H       
  32 H32           -3.7584    -5.1242     0.8417 H       
  33 H33           -5.2057    -2.8846    -1.6552 H       
  34 H34           -4.9640    -3.1082     0.0948 H       
  35 H35           -3.3819    -1.4252    -0.7560 H       
  36 H36           -2.7847    -2.5763    -1.9764 H       
@<TRIPOS>BOND
   1    1    2 1
   2    1    7 ar
   3    1   10 ar
   4    2    3 1
   5    2    6 2
   6    3    4 1
   7    3   21 1
   8    3   22 1
   9    4    5 1
  10    4   23 1
  11    4   24 1
  12    5   11 1
  13    5   15 1
  14    7   16 ar
  15    7   25 1
  16    8    9 ar
  17    8   16 ar
  18    8   26 1
  19    9   10 ar
  20    9   27 1
  21   10   28 1
  22   11   12 1
  23   11   29 1
  24   11   30 1
  25   12   13 1
  26   12   31 1
  27   12   32 1
  28   13   14 1
  29   14   15 1
  30   14   33 1
  31   14   34 1
  32   15   35 1
  33   15   36 1
  34   16   17 1
  35   17   18 1
  36   17   19 1
  37   17   20 1

#	End of record

