#	Name: ASD01040041
#	Creating user name:	WinNT
#	Creation time:	15. 06. 2019 18:58

#	Modifying user name:	WinNT
#	Modification time:	15. 06. 2019 18:58

#	Program:	/corina/corina34_cracker 3.40 0067  02.08.2006

@<TRIPOS>MOLECULE
ASD01040041
  45   47    0    0    0
SMALL
NO_CHARGES


@<TRIPOS>ATOM
   1 O1            -0.0163     1.3545     0.0095 O.3     
   2 C2             0.0021    -0.0041     0.0020 C.ar    
   3 C3             0.0057    -0.6902    -1.2051 C.ar    
   4 C4             0.0239    -2.0689    -1.2160 C.ar    
   5 C5             0.0392    -2.7740    -0.0132 C.ar    
   6 C6             0.0593    -4.2565    -0.0214 C.2     
   7 C7            -1.0968    -5.0106    -0.5626 C.ar    
   8 C8            -0.9452    -5.7979    -1.7034 C.ar    
   9 C9            -2.0223    -6.4984    -2.2040 C.ar    
  10 C10           -3.2569    -6.4200    -1.5736 C.ar    
  11 O11           -4.3163    -7.1111    -2.0696 O.3     
  12 C12           -3.4110    -5.6373    -0.4372 C.ar    
  13 C13           -2.3366    -4.9386     0.0714 C.ar    
  14 C14            1.1214    -4.9142     0.4599 C.2     
  15 C15            2.3086    -4.1643     1.0224 C.3     
  16 C16            2.6267    -4.7273     2.4116 C.3     
  17 C17            2.8262    -6.2406     2.3131 C.3     
  18 C18            1.5243    -6.9072     1.8654 C.3     
  19 S19            1.7398    -8.7084     1.8535 S.3     
  20 C20            2.0051    -9.0992     3.6049 C.3     
  21 C21            1.1623    -6.4263     0.4610 C.3     
  22 C22            0.0360    -2.0820     1.1973 C.ar    
  23 C23            0.0230    -0.7032     1.2014 C.ar    
  24 H24            0.8616     1.7598     0.0033 H       
  25 H25           -0.0061    -0.1435    -2.1364 H       
  26 H26            0.0260    -2.6021    -2.1553 H       
  27 H27            0.0147    -5.8587    -2.1946 H       
  28 H28           -1.9055    -7.1083    -3.0875 H       
  29 H29           -4.4086    -8.0029    -1.7072 H       
  30 H30           -4.3726    -5.5784     0.0509 H       
  31 H31           -2.4562    -4.3329     0.9576 H       
  32 H32            3.1696    -4.2975     0.3674 H       
  33 H33            2.0672    -3.1044     1.1034 H       
  34 H34            3.5375    -4.2645     2.7915 H       
  35 H35            1.8000    -4.5129     3.0888 H       
  36 H36            3.6114    -6.4562     1.5885 H       
  37 H37            3.1170    -6.6319     3.2880 H       
  38 H38            0.7237    -6.6415     2.5557 H       
  39 H39            2.8899    -8.5737     3.9645 H       
  40 H40            1.1361    -8.7850     4.1830 H       
  41 H41            2.1489   -10.1735     3.7197 H       
  42 H42            0.1847    -6.8192     0.1814 H       
  43 H43            1.9152    -6.7727    -0.2469 H       
  44 H44            0.0477    -2.6254     2.1306 H       
  45 H45            0.0245    -0.1666     2.1387 H       
@<TRIPOS>BOND
   1    1    2 1
   2    1   24 1
   3    2   23 ar
   4    2    3 ar
   5    3    4 ar
   6    3   25 1
   7    4    5 ar
   8    4   26 1
   9    5    6 1
  10    5   22 ar
  11    6    7 1
  12    6   14 2
  13    7   13 ar
  14    7    8 ar
  15    8    9 ar
  16    8   27 1
  17    9   10 ar
  18    9   28 1
  19   10   11 1
  20   10   12 ar
  21   11   29 1
  22   12   30 1
  23   12   13 ar
  24   13   31 1
  25   14   21 1
  26   14   15 1
  27   15   16 1
  28   15   32 1
  29   15   33 1
  30   16   17 1
  31   16   34 1
  32   16   35 1
  33   17   18 1
  34   17   36 1
  35   17   37 1
  36   18   19 1
  37   18   38 1
  38   18   21 1
  39   19   20 1
  40   20   39 1
  41   20   40 1
  42   20   41 1
  43   21   42 1
  44   21   43 1
  45   22   44 1
  46   22   23 ar
  47   23   45 1

#	End of record

