#	Name: ASD03331713
#	Creating user name:	WinNT
#	Creation time:	15. 06. 2019 20:39

#	Modifying user name:	WinNT
#	Modification time:	15. 06. 2019 20:39

#	Program:	/corina/corina34_cracker 3.40 0067  02.08.2006

@<TRIPOS>MOLECULE
ASD03331713
  48   51    0    0    0
SMALL
NO_CHARGES


@<TRIPOS>ATOM
   1 C1             1.1873    -0.2494     1.8257 C.ar    
   2 C2             0.2907     0.6548     2.3647 C.ar    
   3 N3             0.5171     1.9523     2.3027 N.ar    
   4 C4             1.5986     2.4420     1.7298 C.ar    
   5 C5             2.5454     1.5975     1.1659 C.ar    
   6 C6             2.3374     0.2212     1.2140 C.ar    
   7 N7             3.6919     2.1215     0.5577 N.am    
   8 C8             4.8613     1.4562     0.6380 C.2     
   9 N9             5.9386     1.9031    -0.0374 N.am    
  10 O10            4.9443     0.4528     1.3196 O.2     
  11 C11            7.1762     1.2689     0.1206 C.ar    
  12 C12            8.4538    -0.7371     0.4598 C.ar    
  13 C13            7.2334    -0.1071     0.3035 C.ar    
  14 C14            8.3459     2.0130     0.0889 C.ar    
  15 C15            9.5748     1.3776     0.2461 C.ar    
  16 C16            9.6224    -0.0030     0.4344 C.ar    
  17 C17           10.8301     2.1674     0.2128 C.ar    
  18 N18           10.7751     3.4824     0.0380 N.ar    
  19 C19           12.0535     1.5238     0.3707 C.ar    
  20 C20           13.2210     2.2710     0.3385 C.ar    
  21 C21           13.1271     3.6389     0.1492 C.ar    
  22 C22           11.8714     4.2218     0.0029 C.ar    
  23 N23           11.7685     5.5954    -0.1822 N.3     
  24 C24           11.5028     7.6057     1.0998 C.3     
  25 C25           12.3682     6.3293     0.9525 C.3     
  26 C26           10.3588     6.0066    -0.3148 C.3     
  27 C27           10.0859     7.0626     0.7769 C.3     
  28 H28            0.9951    -1.3105     1.8849 H       
  29 H29           -0.6077     0.2933     2.8429 H       
  30 H30            1.7495     3.5110     1.6984 H       
  31 H31            3.0551    -0.4622     0.7848 H       
  32 H32            3.6449     2.9635     0.0784 H       
  33 H33            5.8563     2.6643    -0.6329 H       
  34 H34            8.4930    -1.8069     0.6024 H       
  35 H35            6.3219    -0.6860     0.3238 H       
  36 H36            8.3039     3.0822    -0.0575 H       
  37 H37           10.5741    -0.4986     0.5568 H       
  38 H38           12.0933     0.4545     0.5171 H       
  39 H39           14.1833     1.7958     0.4589 H       
  40 H40           14.0183     4.2481     0.1194 H       
  41 H41           11.5497     7.9940     2.1172 H       
  42 H42           11.8031     8.3663     0.3790 H       
  43 H43           12.3178     5.7297     1.8614 H       
  44 H44           13.4014     6.5951     0.7290 H       
  45 H45           10.1902     6.4402    -1.3006 H       
  46 H46            9.7062     5.1458    -0.1695 H       
  47 H47            9.6405     6.6001     1.6577 H       
  48 H48            9.4467     7.8576     0.3929 H       
@<TRIPOS>BOND
   1    1    2 ar
   2    1    6 ar
   3    1   28 1
   4    2    3 ar
   5    2   29 1
   6    3    4 ar
   7    4    5 ar
   8    4   30 1
   9    5    6 ar
  10    5    7 1
  11    6   31 1
  12    7    8 am
  13    7   32 1
  14    8    9 am
  15    8   10 2
  16    9   11 1
  17    9   33 1
  18   11   14 ar
  19   11   13 ar
  20   12   13 ar
  21   12   16 ar
  22   12   34 1
  23   13   35 1
  24   14   15 ar
  25   14   36 1
  26   15   16 ar
  27   15   17 1
  28   16   37 1
  29   17   19 ar
  30   17   18 ar
  31   18   22 ar
  32   19   20 ar
  33   19   38 1
  34   20   21 ar
  35   20   39 1
  36   21   22 ar
  37   21   40 1
  38   22   23 1
  39   23   26 1
  40   23   25 1
  41   24   25 1
  42   24   27 1
  43   24   41 1
  44   24   42 1
  45   25   43 1
  46   25   44 1
  47   26   27 1
  48   26   45 1
  49   26   46 1
  50   27   47 1
  51   27   48 1

#	End of record

