#	Name: ASD03331130
#	Creating user name:	WinNT
#	Creation time:	15. 06. 2019 20:38

#	Modifying user name:	WinNT
#	Modification time:	15. 06. 2019 20:38

#	Program:	/corina/corina34_cracker 3.40 0067  02.08.2006

@<TRIPOS>MOLECULE
ASD03331130
  45   46    0    0    0
SMALL
NO_CHARGES


@<TRIPOS>ATOM
   1 N1            -0.2901     0.8694    -0.6916 N.am    
   2 C2            -0.1484    -0.4590    -1.3041 C.3     
   3 C3             0.9577    -0.3942    -2.3646 C.3     
   4 N4             2.1418     0.2415    -1.7699 N.am    
   5 C5             2.0001     1.5699    -1.1574 C.3     
   6 C6             0.8940     1.5051    -0.0969 C.3     
   7 C7            -1.4834     1.4958    -0.6805 C.2     
   8 O8            -2.4543     0.9624    -1.1798 O.2     
   9 O9            -1.5996     2.7126    -0.1161 O.3     
  10 C10            3.3362    -0.3828    -1.7856 C.2     
  11 N11            4.4351     0.2536    -1.3341 N.am    
  12 O12            3.4223    -1.5200    -2.2070 O.2     
  13 C13            5.6535    -0.4313    -1.2438 C.ar    
  14 C14            6.8478     0.2432    -1.4592 C.ar    
  15 C15            8.0482    -0.4340    -1.3698 C.ar    
  16 C16            8.0611    -1.7848    -1.0655 C.ar    
  17 C17            6.8712    -2.4594    -0.8503 C.ar    
  18 C18            5.6689    -1.7845    -0.9332 C.ar    
  19 F19            9.2364    -2.4456    -0.9789 F       
  20 C20           -2.9147     3.3277    -0.1405 C.3     
  21 C21           -3.9098     2.4334     0.6018 C.3     
  22 C22           -2.8507     4.6956     0.5420 C.3     
  23 C23           -3.3693     3.5021    -1.5909 C.3     
  24 H24            0.1203    -1.1877    -0.5393 H       
  25 H25           -1.0888    -0.7476    -1.7736 H       
  26 H26            1.2098    -1.4028    -2.6924 H       
  27 H27            0.6148     0.1946    -3.2153 H       
  28 H28            2.9406     1.8585    -0.6880 H       
  29 H29            1.7314     2.2986    -1.9222 H       
  30 H30            0.6420     2.5136     0.2309 H       
  31 H31            1.2369     0.9162     0.7538 H       
  32 H32            4.3822     1.1859    -1.0716 H       
  33 H33            6.8381     1.2967    -1.6969 H       
  34 H34            8.9774     0.0903    -1.5376 H       
  35 H35            6.8833    -3.5130    -0.6135 H       
  36 H36            4.7413    -2.3100    -0.7609 H       
  37 H37           -3.5860     2.3092     1.6351 H       
  38 H38           -4.8970     2.8951     0.5835 H       
  39 H39           -3.9554     1.4589     0.1156 H       
  40 H40           -2.1418     5.3326     0.0131 H       
  41 H41           -3.8379     5.1573     0.5236 H       
  42 H42           -2.5269     4.5713     1.5753 H       
  43 H43           -3.4148     2.5276    -2.0771 H       
  44 H44           -4.3565     3.9638    -1.6093 H       
  45 H45           -2.6603     4.1392    -2.1198 H       
@<TRIPOS>BOND
   1    1    2 1
   2    1    6 1
   3    1    7 am
   4    2    3 1
   5    2   24 1
   6    2   25 1
   7    3    4 1
   8    3   26 1
   9    3   27 1
  10    4    5 1
  11    4   10 am
  12    5    6 1
  13    5   28 1
  14    5   29 1
  15    6   30 1
  16    6   31 1
  17    7    8 2
  18    7    9 1
  19    9   20 1
  20   10   11 am
  21   10   12 2
  22   11   13 1
  23   11   32 1
  24   13   14 ar
  25   13   18 ar
  26   14   15 ar
  27   14   33 1
  28   15   16 ar
  29   15   34 1
  30   16   17 ar
  31   16   19 1
  32   17   18 ar
  33   17   35 1
  34   18   36 1
  35   20   21 1
  36   20   23 1
  37   20   22 1
  38   21   37 1
  39   21   38 1
  40   21   39 1
  41   22   40 1
  42   22   41 1
  43   22   42 1
  44   23   43 1
  45   23   44 1
  46   23   45 1

#	End of record

