#	Name: ASD05730017
#	Creating user name:	WinNT
#	Creation time:	15. 06. 2019 21:02

#	Modifying user name:	WinNT
#	Modification time:	15. 06. 2019 21:02

#	Program:	/corina/corina34_cracker 3.40 0067  02.08.2006

@<TRIPOS>MOLECULE
ASD05730017
  52   56    0    0    0
SMALL
NO_CHARGES


@<TRIPOS>ATOM
   1 N1             0.1426     1.1378    -0.9874 N.ar    
   2 C2             0.2488    -0.0608    -0.4240 C.ar    
   3 N3             1.3594    -0.7806    -0.4861 N.ar    
   4 C4             2.4244    -0.3169    -1.1272 C.ar    
   5 C5             2.3483     0.9540    -1.7386 C.ar    
   6 C6             1.1534     1.6764    -1.6456 C.ar    
   7 N7             3.5877    -1.0379    -1.2083 N.am    
   8 C8             4.6581    -0.5524    -1.8619 C.2     
   9 C9             4.6362     0.7097    -2.4891 C.2     
  10 C10            3.5137     1.4742    -2.4472 C.2     
  11 N11           -0.8397    -0.5757     0.2524 N.pl3   
  12 C12           -1.9861     0.2083     0.4346 C.ar    
  13 C13           -3.2417    -0.3847     0.4240 C.ar    
  14 C14           -4.3717     0.3880     0.6040 C.ar    
  15 C15           -4.2526     1.7583     0.7956 C.ar    
  16 C16           -2.9968     2.3514     0.8061 C.ar    
  17 C17           -1.8666     1.5778     0.6314 C.ar    
  18 N18           -5.3979     2.5416     0.9775 N.3     
  19 O19            5.6752    -1.2220    -1.9131 O.2     
  20 C20            3.6661    -2.3559    -0.5734 C.3     
  21 C21           -5.0447     3.9562     1.1615 C.3     
  22 C22           -6.3243     4.7878     1.2772 C.3     
  23 N23           -7.1243     4.2964     2.4078 N.3     
  24 C24           -7.4775     2.8818     2.2238 C.3     
  25 C25           -6.1979     2.0502     2.1081 C.3     
  26 C26           -8.3265     5.1186     2.5988 C.3     
  27 C27            4.6607    -2.5282     0.5764 C.3     
  28 C28            3.1589    -2.4785     0.8649 C.3     
  29 H29            1.0598     2.6510    -2.1013 H       
  30 H30            5.5139     1.0697    -3.0054 H       
  31 H31            3.4851     2.4428    -2.9240 H       
  32 H32           -0.8103    -1.4803     0.6014 H       
  33 H33           -3.3344    -1.4503     0.2747 H       
  34 H34           -5.3483    -0.0732     0.5955 H       
  35 H35           -2.9041     3.4171     0.9547 H       
  36 H36           -0.8900     2.0389     0.6396 H       
  37 H37            3.5109    -3.2070    -1.2364 H       
  38 H38           -4.4546     4.0683     2.0711 H       
  39 H39           -4.4635     4.3002     0.3059 H       
  40 H40           -6.0647     5.8334     1.4428 H       
  41 H41           -6.9013     4.6973     0.3569 H       
  42 H42           -8.0586     2.5378     3.0794 H       
  43 H43           -8.0676     2.7697     1.3142 H       
  44 H44           -6.4574     1.0045     1.9426 H       
  45 H45           -5.6209     2.1406     3.0284 H       
  46 H46           -8.9376     5.0837     1.6969 H       
  47 H47           -8.9003     4.7331     3.4416 H       
  48 H48           -8.0337     6.1492     2.7997 H       
  49 H49            5.1595    -3.4928     0.6701 H       
  50 H50            5.2567    -1.6609     0.8605 H       
  51 H51            2.7670    -1.5785     1.3388 H       
  52 H52            2.6698    -3.4104     1.1484 H       
@<TRIPOS>BOND
   1    1    2 ar
   2    1    6 ar
   3    2    3 ar
   4    2   11 1
   5    3    4 ar
   6    4    5 ar
   7    4    7 1
   8    5    6 ar
   9    5   10 1
  10    6   29 1
  11    7    8 am
  12    7   20 1
  13    8    9 1
  14    8   19 2
  15    9   10 2
  16    9   30 1
  17   10   31 1
  18   11   12 1
  19   11   32 1
  20   12   13 ar
  21   12   17 ar
  22   13   14 ar
  23   13   33 1
  24   14   15 ar
  25   14   34 1
  26   15   16 ar
  27   15   18 1
  28   16   17 ar
  29   16   35 1
  30   17   36 1
  31   18   21 1
  32   18   25 1
  33   20   27 1
  34   20   28 1
  35   20   37 1
  36   21   22 1
  37   21   38 1
  38   21   39 1
  39   22   23 1
  40   22   40 1
  41   22   41 1
  42   23   24 1
  43   23   26 1
  44   24   25 1
  45   24   42 1
  46   24   43 1
  47   25   44 1
  48   25   45 1
  49   26   46 1
  50   26   47 1
  51   26   48 1
  52   27   28 1
  53   27   49 1
  54   27   50 1
  55   28   51 1
  56   28   52 1

#	End of record

