#	Name: ASD00431337
#	Creating user name:	WinNT
#	Creation time:	15. 06. 2019 18:35

#	Modifying user name:	WinNT
#	Modification time:	15. 06. 2019 18:35

#	Program:	/corina/corina34_cracker 3.40 0067  02.08.2006

@<TRIPOS>MOLECULE
ASD00431337
  35   36    0    0    0
SMALL
NO_CHARGES


@<TRIPOS>ATOM
   1 S1            -1.9297     1.4578     1.1867 S.3     
   2 C2            -1.6248    -0.2156     1.0157 C.2     
   3 N3            -1.9460    -0.8461     2.1044 N.2     
   4 C4            -2.4235    -0.1275     3.0943 C.2     
   5 C5            -2.5128     1.1954     2.8284 C.2     
   6 C6            -3.0082     2.2316     3.7471 C.2     
   7 N7            -3.4131     1.9035     4.9434 N.2     
   8 N8            -3.0450     3.5569     3.3422 N.pl3   
   9 O9            -1.1210    -0.8002    -0.0966 O.3     
  10 C10           -0.8373    -2.1290    -0.0467 C.ar    
  11 C11           -1.8618    -3.0517     0.1068 C.ar    
  12 C12           -1.5735    -4.4015     0.1576 C.ar    
  13 C13           -0.2596    -4.8344     0.0556 C.ar    
  14 C14            0.7648    -3.9118    -0.0973 C.ar    
  15 C15            0.4761    -2.5624    -0.1548 C.ar    
  16 O16            0.0242    -6.1632     0.1061 O.3     
  17 C17           -1.0590    -7.0472     0.4018 C.3     
  18 C18           -1.6770    -7.5512    -0.9039 C.3     
  19 C19           -0.5401    -8.2362     1.2129 C.3     
  20 O20           -3.8900     2.9011     5.8280 O.3     
  21 H21           -2.7197    -0.5564     4.0402 H       
  22 H22           -2.7440     3.8008     2.4529 H       
  23 H23           -3.3717     4.2403     3.9481 H       
  24 H24           -2.8847    -2.7146     0.1869 H       
  25 H25           -2.3710    -5.1199     0.2770 H       
  26 H26            1.7878    -4.2489    -0.1760 H       
  27 H27            1.2732    -1.8444    -0.2787 H       
  28 H28           -1.8147    -6.5152     0.9798 H       
  29 H29           -2.5032    -8.2255    -0.6783 H       
  30 H30           -2.0467    -6.7041    -1.4817 H       
  31 H31           -0.9213    -8.0832    -1.4819 H       
  32 H32           -0.0998    -7.8771     2.1431 H       
  33 H33           -1.3663    -8.9105     1.4384 H       
  34 H34            0.2156    -8.7682     0.6349 H       
  35 H35           -4.1671     2.5623     6.6902 H       
@<TRIPOS>BOND
   1    1    2 1
   2    1    5 1
   3    2    3 2
   4    2    9 1
   5    3    4 1
   6    4    5 2
   7    4   21 1
   8    5    6 1
   9    6    7 2
  10    6    8 1
  11    7   20 1
  12    8   22 1
  13    8   23 1
  14    9   10 1
  15   10   11 ar
  16   10   15 ar
  17   11   12 ar
  18   11   24 1
  19   12   13 ar
  20   12   25 1
  21   13   14 ar
  22   13   16 1
  23   14   15 ar
  24   14   26 1
  25   15   27 1
  26   16   17 1
  27   17   18 1
  28   17   19 1
  29   17   28 1
  30   18   29 1
  31   18   30 1
  32   18   31 1
  33   19   32 1
  34   19   33 1
  35   19   34 1
  36   20   35 1

#	End of record

