#	Name: ASD01811438
#	Creating user name:	WinNT
#	Creation time:	15. 06. 2019 19:26

#	Modifying user name:	WinNT
#	Modification time:	15. 06. 2019 19:26

#	Program:	/corina/corina34_cracker 3.40 0067  02.08.2006

@<TRIPOS>MOLECULE
ASD01811438
  67   70    0    0    0
SMALL
NO_CHARGES


@<TRIPOS>ATOM
   1 C1            -0.2094     1.6839    -1.3804 C.2     
   2 C2            -0.2701     0.3053    -1.9019 C.ar    
   3 C3             0.8935    -0.3369    -2.3531 C.ar    
   4 C4             0.7905    -1.6160    -2.8289 C.ar    
   5 C5            -0.4563    -2.2389    -2.8515 C.ar    
   6 N6            -1.5404    -1.6096    -2.4191 N.ar    
   7 C7            -1.4844    -0.3811    -1.9484 C.ar    
   8 O8             0.8541     2.2722    -1.3392 O.2     
   9 N9            -1.3336     2.2935    -0.9548 N.am    
  10 N10           -0.5643    -3.5328    -3.3326 N.pl3   
  11 C11            0.6268    -4.2374    -3.8132 C.3     
  12 C12            0.2344    -5.6386    -4.2860 C.3     
  13 C13            1.4529    -6.3287    -4.9024 C.3     
  14 C14           -0.2669    -6.4572    -3.0946 C.3     
  15 N15           -1.8393     5.5593     0.3915 N.pl3   
  16 N16           -2.2971     4.3005    -0.0168 N.2     
  17 C17           -1.2760     3.6030    -0.4594 C.2     
  18 C18           -0.1217     4.3851    -0.3533 C.2     
  19 C19           -0.4897     5.6030     0.1794 C.2     
  20 C20           -2.6616     6.6394     0.9422 C.3     
  21 C21            0.4034     6.7372     0.4657 C.2     
  22 O22           -0.0363     7.8712     0.4714 O.2     
  23 N23            1.7086     6.5193     0.7217 N.am    
  24 C24            2.6429     7.6450     0.8577 C.3     
  25 C25            3.8189     7.4281    -0.0998 C.3     
  26 C26            4.4436     6.0569     0.1681 C.3     
  27 C27            3.4047     4.9626    -0.0872 C.3     
  28 C28            2.2230     5.1517     0.8760 C.3     
  29 C29            5.6221     5.8543    -0.7490 C.ar    
  30 C30            6.8815     5.6447    -0.2159 C.ar    
  31 C31            7.9647     5.4585    -1.0495 C.ar    
  32 C32            7.7877     5.4814    -2.4344 C.ar    
  33 C33            6.5138     5.6929    -2.9657 C.ar    
  34 C34            5.4387     5.8730    -2.1203 C.ar    
  35 C35            8.9076     5.2892    -3.3059 C.1     
  36 N36            9.7961     5.1368    -3.9972 N.1     
  37 H37            1.8484     0.1669    -2.3259 H       
  38 H38            1.6670    -2.1377    -3.1838 H       
  39 H39           -2.3859     0.1007    -1.5999 H       
  40 H40           -2.1826     1.8257    -0.9914 H       
  41 H41           -1.4287    -3.9727    -3.3514 H       
  42 H42            1.0663    -3.6838    -4.6429 H       
  43 H43            1.3530    -4.3170    -3.0043 H       
  44 H44           -0.5561    -5.5621    -5.0326 H       
  45 H45            2.2434    -6.4053    -4.1559 H       
  46 H46            1.1733    -7.3270    -5.2393 H       
  47 H47            1.8100    -5.7456    -5.7513 H       
  48 H48           -1.1349    -5.9655    -2.6554 H       
  49 H49           -0.5464    -7.4554    -3.4314 H       
  50 H50            0.5236    -6.5337    -2.3480 H       
  51 H51            0.8774     4.0889    -0.6369 H       
  52 H52           -2.6296     6.6014     2.0311 H       
  53 H53           -2.2759     7.6000     0.6007 H       
  54 H54           -3.6912     6.5206     0.6047 H       
  55 H55            2.1335     8.5751     0.6060 H       
  56 H56            3.0104     7.6930     1.8827 H       
  57 H57            3.4627     7.4708    -1.1291 H       
  58 H58            4.5660     8.2057     0.0596 H       
  59 H59            4.7773     6.0062     1.2045 H       
  60 H60            3.0523     5.0284    -1.1166 H       
  61 H61            3.8570     3.9852     0.0812 H       
  62 H62            2.5569     5.0005     1.9025 H       
  63 H63            1.4363     4.4362     0.6363 H       
  64 H64            7.0169     5.6272     0.8555 H       
  65 H65            8.9473     5.2957    -0.6321 H       
  66 H66            6.3700     5.7118    -4.0359 H       
  67 H67            4.4522     6.0326    -2.5298 H       
@<TRIPOS>BOND
   1    1    2 1
   2    1    8 2
   3    1    9 am
   4    2    3 ar
   5    2    7 ar
   6    3    4 ar
   7    3   37 1
   8    4    5 ar
   9    4   38 1
  10    5    6 ar
  11    5   10 1
  12    6    7 ar
  13    7   39 1
  14    9   17 1
  15    9   40 1
  16   10   11 1
  17   10   41 1
  18   11   12 1
  19   11   42 1
  20   11   43 1
  21   12   13 1
  22   12   14 1
  23   12   44 1
  24   13   45 1
  25   13   46 1
  26   13   47 1
  27   14   48 1
  28   14   49 1
  29   14   50 1
  30   15   16 1
  31   15   19 1
  32   15   20 1
  33   16   17 2
  34   17   18 1
  35   18   19 2
  36   18   51 1
  37   19   21 1
  38   20   52 1
  39   20   53 1
  40   20   54 1
  41   21   22 2
  42   21   23 am
  43   23   24 1
  44   23   28 1
  45   24   25 1
  46   24   55 1
  47   24   56 1
  48   25   26 1
  49   25   57 1
  50   25   58 1
  51   26   27 1
  52   26   29 1
  53   26   59 1
  54   27   28 1
  55   27   60 1
  56   27   61 1
  57   28   62 1
  58   28   63 1
  59   29   30 ar
  60   29   34 ar
  61   30   31 ar
  62   30   64 1
  63   31   32 ar
  64   31   65 1
  65   32   33 ar
  66   32   35 1
  67   33   34 ar
  68   33   66 1
  69   34   67 1
  70   35   36 3

#	End of record

