#	Name: ASD03430538
#	Creating user name:	WinNT
#	Creation time:	15. 06. 2019 20:41

#	Modifying user name:	WinNT
#	Modification time:	15. 06. 2019 20:41

#	Program:	/corina/corina34_cracker 3.40 0067  02.08.2006

@<TRIPOS>MOLECULE
ASD03430538
  45   49    0    0    0
SMALL
NO_CHARGES


@<TRIPOS>ATOM
   1 C1             1.2958     1.7604     0.9795 C.2     
   2 C2             1.6555     0.3200     1.2383 C.3     
   3 C3             1.4295    -0.4870    -0.0142 C.2     
   4 O4             0.8932     2.1001    -0.1201 O.co2   
   5 O5             1.4025     2.5851     1.8711 O.co2   
   6 O6             0.9247     0.0319    -0.9869 O.2     
   7 O7             5.6922     0.1831     4.1284 O.3     
   8 C8             6.2263     1.3188     4.8178 C.3     
   9 C9             5.2873     2.5091     4.5803 C.3     
  10 O10            5.2178     2.7528     3.1714 O.3     
  11 C11            5.0353     1.6674     2.3698 C.ar    
  12 C12            5.2781     0.3846     2.8471 C.ar    
  13 C13            4.6013     1.8509     1.0678 C.ar    
  14 C14            4.4129     0.7592     0.2263 C.ar    
  15 C15            4.6770    -0.5189     0.7093 C.ar    
  16 C16            5.1001    -0.7048     2.0085 C.ar    
  17 O17            3.9761     0.7187    -1.0651 O.3     
  18 C18            4.4195    -1.4696    -0.4290 C.3     
  19 C19            4.3443    -0.5445    -1.6515 C.3     
  20 N20            4.9148    -3.7000    -0.4760 N.am    
  21 C21            5.5088    -2.4938    -0.5718 C.2     
  22 C22            3.1569    -2.2567    -0.2425 C.ar    
  23 C23            1.8215    -1.9050    -0.0567 C.ar    
  24 C24            0.8547    -2.9062     0.0898 C.ar    
  25 C25            1.2339    -4.2320     0.0488 C.ar    
  26 C26            2.5581    -4.5776    -0.1350 C.ar    
  27 C27            3.5347    -3.5930    -0.2822 C.ar    
  28 O28            6.6904    -2.2779    -0.7405 O.2     
  29 C29            5.6319    -4.9744    -0.5652 C.3     
  30 H30            2.7040     0.2539     1.5289 H       
  31 H31            1.0306    -0.0720     2.0408 H       
  32 H32            6.2874     1.1058     5.8850 H       
  33 H33            7.2187     1.5505     4.4311 H       
  34 H34            4.2935     2.2750     4.9621 H       
  35 H35            5.6775     3.3917     5.0870 H       
  36 H36            4.4077     2.8487     0.7028 H       
  37 H37            5.2938    -1.7025     2.3738 H       
  38 H38            3.5788    -0.8855    -2.3484 H       
  39 H39            5.3142    -0.4745    -2.1441 H       
  40 H40           -0.1825    -2.6424     0.2345 H       
  41 H41            0.4890    -5.0058     0.1616 H       
  42 H42            2.8401    -5.6198    -0.1646 H       
  43 H43            6.6943    -4.7836    -0.7170 H       
  44 H44            5.4919    -5.5355     0.3587 H       
  45 H45            5.2430    -5.5522    -1.4037 H       
@<TRIPOS>BOND
   1    1    2 1
   2    1    4 ar
   3    1    5 ar
   4    2    3 1
   5    2   30 1
   6    2   31 1
   7    3    6 2
   8    3   23 1
   9    7    8 1
  10    7   12 1
  11    8    9 1
  12    8   32 1
  13    8   33 1
  14    9   10 1
  15    9   34 1
  16    9   35 1
  17   10   11 1
  18   11   12 ar
  19   11   13 ar
  20   12   16 ar
  21   13   14 ar
  22   13   36 1
  23   14   15 ar
  24   14   17 1
  25   15   16 ar
  26   15   18 1
  27   16   37 1
  28   17   19 1
  29   18   19 1
  30   18   21 1
  31   18   22 1
  32   19   38 1
  33   19   39 1
  34   20   21 am
  35   20   27 1
  36   20   29 1
  37   21   28 2
  38   22   23 ar
  39   22   27 ar
  40   23   24 ar
  41   24   25 ar
  42   24   40 1
  43   25   26 ar
  44   25   41 1
  45   26   27 ar
  46   26   42 1
  47   29   43 1
  48   29   44 1
  49   29   45 1

#	End of record

