#	Name: ASD03240280
#	Creating user name:	WinNT
#	Creation time:	15. 06. 2019 20:34

#	Modifying user name:	WinNT
#	Modification time:	15. 06. 2019 20:34

#	Program:	/corina/corina34_cracker 3.40 0067  02.08.2006

@<TRIPOS>MOLECULE
ASD03240280
  80   84    0    0    0
SMALL
NO_CHARGES


@<TRIPOS>ATOM
   1 C1            -0.0178     1.3677     0.0641 C.2     
   2 N2             0.0004    -0.0070     0.0590 N.pl3   
   3 C3            -2.6860     3.9948     0.0984 C.3     
   4 C4            -1.2369     3.5040     0.0831 C.3     
   5 N5            -1.2174     2.0392     0.0777 N.pl3   
   6 N6             1.1022     2.0343     0.0614 N.2     
   7 N7            -2.7054     5.4597     0.1039 N.pl3   
   8 C8            -3.9165     6.1376     0.1176 C.ar    
   9 C9            -3.9351     7.5411     0.1228 C.ar    
  10 C10           -5.1493     8.2152     0.1361 C.ar    
  11 C11           -6.3434     7.4930     0.1442 C.ar    
  12 C12           -6.3149     6.0944     0.1389 C.ar    
  13 C13           -5.1114     5.4264     0.1204 C.ar    
  14 C14           -7.6357     8.2044     0.1588 C.2     
  15 N15           -8.7889     7.5069     0.1667 N.am    
  16 O16           -7.6604     9.4203     0.1638 O.2     
  17 C17          -10.0122     8.1775     0.2935 C.ar    
  18 C18          -11.1358     7.7038    -0.3710 C.ar    
  19 C19          -10.1026     9.3126     1.0884 C.ar    
  20 C20          -11.3083     9.9733     1.2138 C.ar    
  21 C21          -12.4308     9.5030     0.5447 C.ar    
  22 C22          -12.3414     8.3649    -0.2464 C.ar    
  23 N23          -13.6527    10.1722     0.6721 N.pl3   
  24 C24          -14.8367     9.6760    -0.0337 C.3     
  25 C25          -13.7483    11.3691     1.5113 C.3     
  26 C26           -2.6633     8.3011     0.1146 C.ar    
  27 C27           -2.4713     9.3292    -0.8095 C.ar    
  28 C28           -1.2905    10.0359    -0.8181 C.ar    
  29 C29           -0.2832     9.7239     0.0996 C.ar    
  30 C30           -0.4768     8.6942     1.0250 C.ar    
  31 C31           -1.6605     7.9922     1.0348 C.ar    
  32 C32          -13.4536    12.5907     0.6795 C.ar    
  33 C33          -15.5702     8.6947     0.8439 C.ar    
  34 C34          -14.4807    13.2475     0.0279 C.ar    
  35 C35          -14.2104    14.3680    -0.7352 C.ar    
  36 C36          -12.9130    14.8320    -0.8463 C.ar    
  37 C37          -11.8860    14.1757    -0.1940 C.ar    
  38 C38          -12.1570    13.0578     0.5726 C.ar    
  39 C39          -16.5554     9.1400     1.7053 C.ar    
  40 C40          -17.2282     8.2399     2.5103 C.ar    
  41 C41          -16.9161     6.8944     2.4536 C.ar    
  42 C42          -15.9315     6.4490     1.5916 C.ar    
  43 C43          -15.2617     7.3485     0.7834 C.ar    
  44 C44            0.9462    10.4581     0.0914 C.1     
  45 N45            1.9215    11.0406     0.0849 N.1     
  46 H46            0.8468    -0.4808     0.0534 H       
  47 H47           -0.8331    -0.5032     0.0610 H       
  48 H48           -3.2032     3.6278    -0.7881 H       
  49 H49           -3.1866     3.6215     0.9918 H       
  50 H50           -0.7363     3.8774    -0.8102 H       
  51 H51           -0.7196     3.8710     0.9696 H       
  52 H52           -2.0509     1.5431     0.0837 H       
  53 H53            1.0893     3.0042     0.0650 H       
  54 H54           -1.8719     5.9558     0.0978 H       
  55 H55           -5.1693     9.2950     0.1405 H       
  56 H56           -7.2399     5.5371     0.1456 H       
  57 H57           -5.0951     4.3465     0.1161 H       
  58 H58           -8.7718     6.5405     0.0845 H       
  59 H59          -11.0665     6.8185    -0.9856 H       
  60 H60           -9.2297     9.6784     1.6087 H       
  61 H61          -11.3787    10.8557     1.8326 H       
  62 H62          -13.2142     7.9990    -0.7668 H       
  63 H63          -15.4943    10.5119    -0.2725 H       
  64 H64          -14.5296     9.1806    -0.9548 H       
  65 H65          -14.7546    11.4444     1.9236 H       
  66 H66          -13.0264    11.3009     2.3251 H       
  67 H67           -3.2497     9.5700    -1.5184 H       
  68 H68           -1.1419    10.8309    -1.5338 H       
  69 H69            0.3006     8.4522     1.7345 H       
  70 H70           -1.8105     7.1969     1.7499 H       
  71 H71          -15.4944    12.8850     0.1147 H       
  72 H72          -15.0128    14.8807    -1.2448 H       
  73 H73          -12.7017    15.7070    -1.4430 H       
  74 H74          -10.8723    14.5380    -0.2811 H       
  75 H75          -11.3546    12.5451     1.0823 H       
  76 H76          -16.7993    10.1912     1.7495 H       
  77 H77          -17.9974     8.5879     3.1838 H       
  78 H78          -17.4412     6.1913     3.0831 H       
  79 H79          -15.6874     5.3979     1.5475 H       
  80 H80          -14.4925     7.0006     0.1099 H       
@<TRIPOS>BOND
   1    1    2 1
   2    1    6 2
   3    1    5 1
   4    2   46 1
   5    2   47 1
   6    3    4 1
   7    3    7 1
   8    3   48 1
   9    3   49 1
  10    4    5 1
  11    4   50 1
  12    4   51 1
  13    5   52 1
  14    6   53 1
  15    7    8 1
  16    7   54 1
  17    8    9 ar
  18    8   13 ar
  19    9   10 ar
  20    9   26 1
  21   10   11 ar
  22   10   55 1
  23   11   12 ar
  24   11   14 1
  25   12   13 ar
  26   12   56 1
  27   13   57 1
  28   14   15 am
  29   14   16 2
  30   15   17 1
  31   15   58 1
  32   17   18 ar
  33   17   19 ar
  34   18   22 ar
  35   18   59 1
  36   19   20 ar
  37   19   60 1
  38   20   21 ar
  39   20   61 1
  40   21   22 ar
  41   21   23 1
  42   22   62 1
  43   23   24 1
  44   23   25 1
  45   24   33 1
  46   24   63 1
  47   24   64 1
  48   25   32 1
  49   25   65 1
  50   25   66 1
  51   26   27 ar
  52   26   31 ar
  53   27   28 ar
  54   27   67 1
  55   28   29 ar
  56   28   68 1
  57   29   30 ar
  58   29   44 1
  59   30   31 ar
  60   30   69 1
  61   31   70 1
  62   32   34 ar
  63   32   38 ar
  64   33   39 ar
  65   33   43 ar
  66   34   35 ar
  67   34   71 1
  68   35   36 ar
  69   35   72 1
  70   36   37 ar
  71   36   73 1
  72   37   38 ar
  73   37   74 1
  74   38   75 1
  75   39   40 ar
  76   39   76 1
  77   40   41 ar
  78   40   77 1
  79   41   42 ar
  80   41   78 1
  81   42   43 ar
  82   42   79 1
  83   43   80 1
  84   44   45 3

#	End of record

