#	Name: ASD01810824
#	Creating user name:	WinNT
#	Creation time:	15. 06. 2019 19:25

#	Modifying user name:	WinNT
#	Modification time:	15. 06. 2019 19:25

#	Program:	/corina/corina34_cracker 3.40 0067  02.08.2006

@<TRIPOS>MOLECULE
ASD01810824
  62   66    0    0    0
SMALL
NO_CHARGES


@<TRIPOS>ATOM
   1 C1            -7.9885     2.1102     2.4032 C.1     
   2 C2            -6.8240     2.9141     2.1835 C.ar    
   3 C3            -5.5747     2.4745     2.6257 C.ar    
   4 C4            -4.4570     3.2539     2.4107 C.ar    
   5 C5            -4.5720     4.4690     1.7589 C.ar    
   6 C6            -5.8069     4.9109     1.3184 C.ar    
   7 C7            -6.9318     4.1384     1.5208 C.ar    
   8 N8            -8.9123     1.4725     2.5776 N.1     
   9 N9            -1.9116     7.7526     1.5125 N.am    
  10 C10           -2.4024     7.2294     0.2303 C.3     
  11 C11           -3.6598     6.3931     0.4879 C.3     
  12 C12           -3.3465     5.3152     1.5281 C.3     
  13 C13           -2.9299     5.9784     2.8429 C.3     
  14 C14           -1.6642     6.8099     2.6120 C.3     
  15 F15           -2.3033     4.5076     1.0626 F       
  16 C16           -1.6874     9.0716     1.6753 C.2     
  17 C17           -1.2784     9.5945     2.9966 C.ar    
  18 C18           -2.0197    10.6080     3.6084 C.ar    
  19 C19           -1.6390    11.0970     4.8419 C.ar    
  20 C20           -0.5241    10.5885     5.4790 C.ar    
  21 C21            0.2254     9.5752     4.8789 C.ar    
  22 C22           -0.1561     9.0734     3.6368 C.ar    
  23 O23           -1.8214     9.8313     0.7360 O.2     
  24 N24            2.9036     8.6769     7.0433 N.2     
  25 N25            1.8339     9.3363     6.7726 N.2     
  26 C26            1.4197     9.0321     5.5628 C.2     
  27 N27            2.3029     8.1178     5.0560 N.pl3   
  28 C28            3.2316     7.9199     6.0308 C.2     
  29 C29            4.4201     6.9963     5.9559 C.3     
  30 C30           -3.2374    11.1691     2.9202 C.3     
  31 C31           -0.1154    11.1292     6.8250 C.3     
  32 C32            0.0937    12.6527     6.8393 C.3     
  33 C33           -0.5889    12.6544     8.2173 C.3     
  34 C34           -1.2978    11.3616     7.7804 C.3     
  35 H35           -5.4836     1.5266     3.1353 H       
  36 H36           -3.4901     2.9151     2.7523 H       
  37 H37           -5.8896     5.8605     0.8106 H       
  38 H38           -7.8944     4.4823     1.1722 H       
  39 H39           -2.6449     8.0588    -0.4340 H       
  40 H40           -1.6353     6.6045    -0.2270 H       
  41 H41           -4.4556     7.0381     0.8606 H       
  42 H42           -3.9790     5.9205    -0.4410 H       
  43 H43           -3.7325     6.6272     3.1934 H       
  44 H44           -2.7295     5.2106     3.5901 H       
  45 H45           -0.8368     6.1508     2.3489 H       
  46 H46           -1.4195     7.3626     3.5191 H       
  47 H47           -2.2153    11.8809     5.3106 H       
  48 H48            0.4183     8.2868     3.1699 H       
  49 H49            2.2731     7.6975     4.1822 H       
  50 H50            4.1375     6.0100     6.3240 H       
  51 H51            4.7534     6.9162     4.9212 H       
  52 H52            5.2289     7.3947     6.5684 H       
  53 H53           -4.1012    10.5425     3.1422 H       
  54 H54           -3.4220    12.1822     3.2774 H       
  55 H55           -3.0696    11.1884     1.8434 H       
  56 H56            0.7068    10.5715     7.2733 H       
  57 H57            1.1420    12.9493     6.8709 H       
  58 H58           -0.4730    13.1784     6.0707 H       
  59 H59            0.1032    12.5137     9.0475 H       
  60 H60           -1.2668    13.4946     8.3678 H       
  61 H61           -2.2448    11.5343     7.2691 H       
  62 H62           -1.3727    10.6158     8.5718 H       
@<TRIPOS>BOND
   1    1    2 1
   2    1    8 3
   3    2    3 ar
   4    2    7 ar
   5    3    4 ar
   6    3   35 1
   7    4    5 ar
   8    4   36 1
   9    5    6 ar
  10    5   12 1
  11    6    7 ar
  12    6   37 1
  13    7   38 1
  14    9   10 1
  15    9   14 1
  16    9   16 am
  17   10   11 1
  18   10   39 1
  19   10   40 1
  20   11   12 1
  21   11   41 1
  22   11   42 1
  23   12   13 1
  24   12   15 1
  25   13   14 1
  26   13   43 1
  27   13   44 1
  28   14   45 1
  29   14   46 1
  30   16   17 1
  31   16   23 2
  32   17   18 ar
  33   17   22 ar
  34   18   19 ar
  35   18   30 1
  36   19   20 ar
  37   19   47 1
  38   20   21 ar
  39   20   31 1
  40   21   22 ar
  41   21   26 1
  42   22   48 1
  43   24   25 1
  44   24   28 2
  45   25   26 2
  46   26   27 1
  47   27   28 1
  48   27   49 1
  49   28   29 1
  50   29   50 1
  51   29   51 1
  52   29   52 1
  53   30   53 1
  54   30   54 1
  55   30   55 1
  56   31   32 1
  57   31   34 1
  58   31   56 1
  59   32   33 1
  60   32   57 1
  61   32   58 1
  62   33   34 1
  63   33   59 1
  64   33   60 1
  65   34   61 1
  66   34   62 1

#	End of record

