#	Name: ASD01510041
#	Creating user name:	WinNT
#	Creation time:	15. 06. 2019 19:21

#	Modifying user name:	WinNT
#	Modification time:	15. 06. 2019 19:21

#	Program:	/corina/corina34_cracker 3.40 0067  02.08.2006

@<TRIPOS>MOLECULE
ASD01510041
  58   60    0    0    0
SMALL
NO_CHARGES


@<TRIPOS>ATOM
   1 C1            -0.0289     1.5053    -0.0124 C.3     
   2 C2            -0.0095    -0.0246    -0.0154 C.3     
   3 O3            -1.3506    -0.5179     0.0002 O.3     
   4 C4            -1.5113    -1.8647    -0.0002 C.ar    
   5 N5            -0.4539    -2.6693    -0.0147 N.ar    
   6 C6            -0.6021    -3.9852    -0.0153 C.ar    
   7 N7            -1.7983    -4.5530    -0.0020 N.ar    
   8 C8            -2.9029    -3.8145     0.0129 C.ar    
   9 C9            -2.7887    -2.4244     0.0204 C.ar    
  10 S10           -4.2227    -1.4008     0.0401 S.3     
  11 C11           -4.4554    -1.2336     1.7787 C.ar    
  12 N12           -3.6110    -1.8358     2.6037 N.ar    
  13 C13           -3.7561    -1.7315     3.9223 C.ar    
  14 N14           -2.8685    -2.3639     4.7787 N.pl3   
  15 C15           -4.8113    -0.9780     4.4304 C.ar    
  16 C16           -5.6769    -0.3607     3.5332 C.ar    
  17 N17           -5.4671    -0.5045     2.2274 N.ar    
  18 N18           -6.7441     0.4008     3.9950 N.am    
  19 C19           -7.5152     1.0794     3.1225 C.2     
  20 O20           -7.2227     1.1021     1.9424 O.2     
  21 C21           -8.7103     1.7924     3.5975 C.2     
  22 C22           -9.4715     2.4622     2.7363 C.2     
  23 O23           -4.1242    -4.4042     0.0265 O.3     
  24 C24           -4.1549    -5.8329     0.0238 C.3     
  25 C25           -5.6079    -6.3118     0.0404 C.3     
  26 N26            0.5262    -4.7905    -0.0307 N.3     
  27 C27            0.1581    -6.2121    -0.0288 C.3     
  28 C28            1.4171    -7.0666    -0.1926 C.3     
  29 C29            2.3834    -6.7688     0.9572 C.3     
  30 C30            2.7128    -5.2735     0.9624 C.3     
  31 C31            1.4162    -4.4710     1.0927 C.3     
  32 H32            0.9940     1.8816    -0.0244 H       
  33 H33           -0.5582     1.8637    -0.8953 H       
  34 H34           -0.5362     1.8605     0.8845 H       
  35 H35            0.4978    -0.3798    -0.9124 H       
  36 H36            0.5198    -0.3830     0.8674 H       
  37 H37           -2.1356    -2.8869     4.4178 H       
  38 H38           -2.9803    -2.2836     5.7388 H       
  39 H39           -4.9545    -0.8755     5.4959 H       
  40 H40           -6.9338     0.4438     4.9453 H       
  41 H41           -8.9701     1.7722     4.6456 H       
  42 H42          -10.3492     2.9858     3.0852 H       
  43 H43           -9.2116     2.4823     1.6882 H       
  44 H44           -3.6598    -6.2052    -0.8730 H       
  45 H45           -3.6382    -6.2090     0.9068 H       
  46 H46           -5.6313    -7.4016     0.0384 H       
  47 H47           -6.1030    -5.9395     0.9372 H       
  48 H48           -6.1245    -5.9357    -0.8426 H       
  49 H49           -0.3288    -6.4599     0.9144 H       
  50 H50           -0.5259    -6.4113    -0.8537 H       
  51 H51            1.1453    -8.1221    -0.1755 H       
  52 H52            1.8970    -6.8292    -1.1420 H       
  53 H53            1.9182    -7.0426     1.9042 H       
  54 H54            3.2997    -7.3432     0.8210 H       
  55 H55            3.3667    -5.0478     1.8047 H       
  56 H56            3.2131    -5.0079     0.0311 H       
  57 H57            1.6460    -3.4055     1.0823 H       
  58 H58            0.9234    -4.7269     2.0307 H       
@<TRIPOS>BOND
   1    1    2 1
   2    1   32 1
   3    1   33 1
   4    1   34 1
   5    2    3 1
   6    2   35 1
   7    2   36 1
   8    3    4 1
   9    4    5 ar
  10    4    9 ar
  11    5    6 ar
  12    6    7 ar
  13    6   26 1
  14    7    8 ar
  15    8    9 ar
  16    8   23 1
  17    9   10 1
  18   10   11 1
  19   11   12 ar
  20   11   17 ar
  21   12   13 ar
  22   13   14 1
  23   13   15 ar
  24   14   37 1
  25   14   38 1
  26   15   16 ar
  27   15   39 1
  28   16   17 ar
  29   16   18 1
  30   18   19 am
  31   18   40 1
  32   19   20 2
  33   19   21 1
  34   21   22 2
  35   21   41 1
  36   22   42 1
  37   22   43 1
  38   23   24 1
  39   24   25 1
  40   24   44 1
  41   24   45 1
  42   25   46 1
  43   25   47 1
  44   25   48 1
  45   26   27 1
  46   26   31 1
  47   27   28 1
  48   27   49 1
  49   27   50 1
  50   28   29 1
  51   28   51 1
  52   28   52 1
  53   29   30 1
  54   29   53 1
  55   29   54 1
  56   30   31 1
  57   30   55 1
  58   30   56 1
  59   31   57 1
  60   31   58 1

#	End of record

