#	Name: ASD09740378
#	Creating user name:	WinNT
#	Creation time:	15. 06. 2019 21:23

#	Modifying user name:	WinNT
#	Modification time:	15. 06. 2019 21:23

#	Program:	/corina/corina34_cracker 3.40 0067  02.08.2006

@<TRIPOS>MOLECULE
ASD09740378
  40   44    0    0    0
SMALL
NO_CHARGES


@<TRIPOS>ATOM
   1 O1            -0.0144     1.2085     0.0087 O.3     
   2 N2             0.0021    -0.0041     0.0020 N.2     
   3 C3             1.2430     1.6827    -0.0008 C.2     
   4 N4             2.0477     0.6320    -0.0141 N.2     
   5 C5             1.2349    -0.4439    -0.0121 C.2     
   6 C6             1.6600    -1.8659    -0.0238 C.ar    
   7 C7             1.6465     3.0950     0.0025 C.2     
   8 C8             0.7064    -2.8757    -0.0201 C.ar    
   9 C9             1.1164    -4.2057    -0.0317 C.ar    
  10 C10            2.4856    -4.5252    -0.0469 C.ar    
  11 C11            3.4275    -3.5026    -0.0501 C.ar    
  12 C12            3.0199    -2.1885    -0.0444 C.ar    
  13 C13            0.8036     4.1648     0.0163 C.2     
  14 O14            2.5817    -5.8700    -0.0550 O.3     
  15 C15            1.3635    -6.4385    -0.0460 C.2     
  16 C16            0.4129    -5.4947    -0.0315 C.2     
  17 C17            1.6176     5.3223     0.0143 C.2     
  18 C18            2.9095     4.8935    -0.0007 C.2     
  19 O19            2.9144     3.5534    -0.0017 O.3     
  20 C20            1.1525     6.7321     0.0257 C.ar    
  21 C21            0.1887     7.1576    -0.8859 C.ar    
  22 C22           -0.2405     8.4694    -0.8706 C.ar    
  23 C23            0.2848     9.3609     0.0472 C.ar    
  24 C24            1.2422     8.9438     0.9542 C.ar    
  25 C25            1.6740     7.6328     0.9517 C.ar    
  26 C26            4.1299     5.7777    -0.0081 C.3     
  27 F27            4.5205     6.0445     1.3085 F       
  28 F28            5.1711     5.1297    -0.6812 F       
  29 F29            3.8309     6.9797    -0.6585 F       
  30 H30           -0.3454    -2.6308    -0.0081 H       
  31 H31            4.4809    -3.7402    -0.0615 H       
  32 H32            3.7572    -1.3993    -0.0473 H       
  33 H33           -0.2760     4.1354     0.0268 H       
  34 H34            1.1780    -7.5025    -0.0505 H       
  35 H35           -0.6558    -5.6504    -0.0218 H       
  36 H36           -0.2215     6.4625    -1.6034 H       
  37 H37           -0.9876     8.8003    -1.5768 H       
  38 H38           -0.0536    10.3865     0.0555 H       
  39 H39            1.6496     9.6441     1.6683 H       
  40 H40            2.4216     7.3081     1.6602 H       
@<TRIPOS>BOND
   1    1    2 1
   2    1    3 1
   3    2    5 2
   4    3    4 2
   5    3    7 1
   6    4    5 1
   7    5    6 1
   8    6    8 ar
   9    6   12 ar
  10    7   13 2
  11    7   19 1
  12    8    9 ar
  13    8   30 1
  14    9   10 ar
  15    9   16 1
  16   10   11 ar
  17   10   14 1
  18   11   12 ar
  19   11   31 1
  20   12   32 1
  21   13   17 1
  22   13   33 1
  23   14   15 1
  24   15   16 2
  25   15   34 1
  26   16   35 1
  27   17   18 2
  28   17   20 1
  29   18   19 1
  30   18   26 1
  31   20   21 ar
  32   20   25 ar
  33   21   22 ar
  34   21   36 1
  35   22   23 ar
  36   22   37 1
  37   23   24 ar
  38   23   38 1
  39   24   25 ar
  40   24   39 1
  41   25   40 1
  42   26   27 1
  43   26   28 1
  44   26   29 1

#	End of record

