#	Name: ASD02401017
#	Creating user name:	WinNT
#	Creation time:	15. 06. 2019 20:20

#	Modifying user name:	WinNT
#	Modification time:	15. 06. 2019 20:20

#	Program:	/corina/corina34_cracker 3.40 0067  02.08.2006

@<TRIPOS>MOLECULE
ASD02401017
  27   28    0    0    0
SMALL
NO_CHARGES


@<TRIPOS>ATOM
   1 C1             7.0080     1.3561    -1.5133 C.ar    
   2 C2             7.1403     0.0210    -1.1743 C.ar    
   3 C3             6.1429    -0.6206    -0.4611 C.ar    
   4 C4             5.0091     0.0679    -0.0831 C.ar    
   5 C5             4.8690     1.4156    -0.4218 C.ar    
   6 C6             5.8795     2.0568    -1.1417 C.ar    
   7 C7             3.6568     2.1596    -0.0207 C.2     
   8 C8             3.6953     3.6302     0.0845 C.ar    
   9 C9             2.5132     4.3704    -0.0105 C.ar    
  10 C10            2.5502     5.7445     0.0878 C.ar    
  11 C11            3.7593     6.3979     0.2808 C.ar    
  12 C12            4.9447     5.6657     0.3763 C.ar    
  13 C13            4.9138     4.2869     0.2852 C.ar    
  14 N14            6.1628     6.3275     0.5705 N.pl3   
  15 O15            3.7899     7.7521     0.3766 O.3     
  16 O16            2.6278     1.5594     0.2226 O.2     
  17 H17            7.7923     1.8519    -2.0661 H       
  18 H18            8.0259    -0.5230    -1.4681 H       
  19 H19            6.2524    -1.6628    -0.2002 H       
  20 H20            4.2313    -0.4341     0.4731 H       
  21 H21            5.7777     3.0988    -1.4066 H       
  22 H22            1.5707     3.8652    -0.1614 H       
  23 H23            1.6358     6.3145     0.0142 H       
  24 H24            5.8293     3.7188     0.3592 H       
  25 H25            6.1837     7.2949     0.6388 H       
  26 H26            6.9860     5.8187     0.6368 H       
  27 H27            3.6913     8.0849     1.2792 H       
@<TRIPOS>BOND
   1    1    2 ar
   2    1    6 ar
   3    1   17 1
   4    2    3 ar
   5    2   18 1
   6    3    4 ar
   7    3   19 1
   8    4    5 ar
   9    4   20 1
  10    5    6 ar
  11    5    7 1
  12    6   21 1
  13    7    8 1
  14    7   16 2
  15    8    9 ar
  16    8   13 ar
  17    9   10 ar
  18    9   22 1
  19   10   11 ar
  20   10   23 1
  21   11   12 ar
  22   11   15 1
  23   12   13 ar
  24   12   14 1
  25   13   24 1
  26   14   25 1
  27   14   26 1
  28   15   27 1

#	End of record

