#	Name: ASD09740195
#	Creating user name:	WinNT
#	Creation time:	15. 06. 2019 21:22

#	Modifying user name:	WinNT
#	Modification time:	15. 06. 2019 21:22

#	Program:	/corina/corina34_cracker 3.40 0067  02.08.2006

@<TRIPOS>MOLECULE
ASD09740195
  42   45    0    0    0
SMALL
NO_CHARGES


@<TRIPOS>ATOM
   1 O1            -0.0144     1.2085     0.0087 O.3     
   2 N2             0.0021    -0.0041     0.0020 N.2     
   3 C3             1.2411     1.6827    -0.0008 C.2     
   4 N4             2.0453     0.6365    -0.0141 N.2     
   5 C5             1.2345    -0.4420    -0.0121 C.2     
   6 C6             1.6625    -1.8640    -0.0234 C.ar    
   7 C7             1.6456     3.1046     0.0023 C.ar    
   8 C8             0.7215    -2.8965    -0.0200 C.ar    
   9 C9             3.0169    -2.2055    -0.0435 C.ar    
  10 C10            3.3712    -3.5396    -0.0534 C.ar    
  11 N11            2.4511    -4.4844    -0.0445 N.ar    
  12 C12            1.1623    -4.2046    -0.0308 C.ar    
  13 C13            0.6765     4.1090     0.0167 C.ar    
  14 C14            1.0608     5.4340     0.0194 C.ar    
  15 C15            2.4033     5.7681     0.0074 C.ar    
  16 C16            3.3689     4.7774    -0.0068 C.ar    
  17 C17            2.9982     3.4485    -0.0034 C.ar    
  18 C18            2.8157     7.2176     0.0095 C.3     
  19 C19            3.6613     7.5055     1.2516 C.3     
  20 C20            3.6364     7.5161    -1.2467 C.3     
  21 C21            4.0551     8.9877    -1.2447 C.3     
  22 C22            4.9008     9.2757    -0.0025 C.3     
  23 C23            4.0800     8.9771     1.2537 C.3     
  24 H24           -0.3354    -2.6745    -0.0088 H       
  25 H25            3.7756    -1.4369    -0.0516 H       
  26 H26            4.4159    -3.8134    -0.0689 H       
  27 H27            0.4423    -5.0096    -0.0235 H       
  28 H28           -0.3718     3.8494     0.0253 H       
  29 H29            0.3119     6.2121     0.0305 H       
  30 H30            4.4153     5.0449    -0.0161 H       
  31 H31            3.7530     2.6761    -0.0143 H       
  32 H32            1.9267     7.8483     0.0210 H       
  33 H33            3.0766     7.2929     2.1465 H       
  34 H34            4.5503     6.8749     1.2401 H       
  35 H35            4.5254     6.8855    -1.2583 H       
  36 H36            3.0340     7.3110    -2.1316 H       
  37 H37            4.6398     9.2004    -2.1396 H       
  38 H38            3.1661     9.6184    -1.2331 H       
  39 H39            5.7897     8.6450    -0.0141 H       
  40 H40            5.1990    10.3241    -0.0011 H       
  41 H41            3.1910     9.6078     1.2652 H       
  42 H42            4.6824     9.1823     2.1386 H       
@<TRIPOS>BOND
   1    1    2 1
   2    1    3 1
   3    2    5 2
   4    3    4 2
   5    3    7 1
   6    4    5 1
   7    5    6 1
   8    6    8 ar
   9    6    9 ar
  10    7   13 ar
  11    7   17 ar
  12    8   12 ar
  13    8   24 1
  14    9   10 ar
  15    9   25 1
  16   10   11 ar
  17   10   26 1
  18   11   12 ar
  19   12   27 1
  20   13   14 ar
  21   13   28 1
  22   14   15 ar
  23   14   29 1
  24   15   16 ar
  25   15   18 1
  26   16   17 ar
  27   16   30 1
  28   17   31 1
  29   18   19 1
  30   18   20 1
  31   18   32 1
  32   19   23 1
  33   19   33 1
  34   19   34 1
  35   20   21 1
  36   20   35 1
  37   20   36 1
  38   21   22 1
  39   21   37 1
  40   21   38 1
  41   22   23 1
  42   22   39 1
  43   22   40 1
  44   23   41 1
  45   23   42 1

#	End of record

