#	Name: ASD01915211
#	Creating user name:	WinNT
#	Creation time:	15. 06. 2019 20:05

#	Modifying user name:	WinNT
#	Modification time:	15. 06. 2019 20:05

#	Program:	/corina/corina34_cracker 3.40 0067  02.08.2006

@<TRIPOS>MOLECULE
ASD01915211
  32   33    0    0    0
SMALL
NO_CHARGES


@<TRIPOS>ATOM
   1 C1             1.1801    -0.6123    -0.0116 C.ar    
   2 C2            -0.0401     0.0666     0.0108 C.ar    
   3 C3            -1.2283    -0.6413     0.0227 C.ar    
   4 C4            -1.2157    -2.0239     0.0119 C.ar    
   5 C5            -0.0008    -2.7137    -0.0110 C.ar    
   6 C6             1.1992    -2.0055    -0.0284 C.ar    
   7 F7            -2.4058     0.0207     0.0453 F       
   8 C8             2.4492     0.1458    -0.0237 C.2     
   9 N9             2.4292     1.4934    -0.0131 N.am    
  10 O10            3.5106    -0.4461    -0.0433 O.2     
  11 C11            3.6219     2.2070     0.0845 C.ar    
  12 C12            3.6048     3.5936    -0.0132 C.ar    
  13 C13            4.7966     4.2901     0.0855 C.ar    
  14 C14            5.9688     3.5725     0.2793 C.ar    
  15 C15            5.9119     2.1954     0.3672 C.ar    
  16 N16            4.7604     1.5587     0.2748 N.ar    
  17 C17            4.8212     5.7935    -0.0156 C.3     
  18 C18            7.1811     1.4104     0.5775 C.3     
  19 C19            0.0110    -4.1457    -0.0221 C.1     
  20 N20            0.0204    -5.2816    -0.0309 N.1     
  21 H21           -0.0559     1.1464     0.0193 H       
  22 H22           -2.1465    -2.5715     0.0216 H       
  23 H23            2.1406    -2.5345    -0.0461 H       
  24 H24            1.5846     1.9665    -0.0734 H       
  25 H25            2.6740     4.1202    -0.1644 H       
  26 H26            6.9157     4.0857     0.3601 H       
  27 H27            4.7017     6.2264     0.9776 H       
  28 H28            5.7731     6.1136    -0.4394 H       
  29 H29            4.0066     6.1278    -0.6581 H       
  30 H30            7.3618     1.2913     1.6458 H       
  31 H31            7.0822     0.4288     0.1141 H       
  32 H32            8.0172     1.9434     0.1248 H       
@<TRIPOS>BOND
   1    1    2 ar
   2    1    8 1
   3    1    6 ar
   4    2    3 ar
   5    2   21 1
   6    3    4 ar
   7    3    7 1
   8    4    5 ar
   9    4   22 1
  10    5    6 ar
  11    5   19 1
  12    6   23 1
  13    8    9 am
  14    8   10 2
  15    9   11 1
  16    9   24 1
  17   11   12 ar
  18   11   16 ar
  19   12   13 ar
  20   12   25 1
  21   13   14 ar
  22   13   17 1
  23   14   15 ar
  24   14   26 1
  25   15   16 ar
  26   15   18 1
  27   17   27 1
  28   17   28 1
  29   17   29 1
  30   18   30 1
  31   18   31 1
  32   18   32 1
  33   19   20 3

#	End of record

