#	Name: ASD01230810
#	Creating user name:	WinNT
#	Creation time:	15. 06. 2019 19:15

#	Modifying user name:	WinNT
#	Modification time:	15. 06. 2019 19:15

#	Program:	/corina/corina34_cracker 3.40 0067  02.08.2006

@<TRIPOS>MOLECULE
ASD01230810
  35   38    0    0    0
SMALL
NO_CHARGES


@<TRIPOS>ATOM
   1 C1            -0.0166     1.3743     0.0096 C.2     
   2 C2             0.0021    -0.0041     0.0020 C.2     
   3 C3            -1.2142    -0.6998     0.0083 C.2     
   4 C4            -2.3848    -0.0387     0.0110 C.2     
   5 N5            -2.4625     1.3312     0.0014 N.pl3   
   6 C6            -1.3177     2.0763     0.0320 C.2     
   7 C7            -3.8102     1.9042    -0.0486 C.3     
   8 C8            -3.8786     3.1900     0.7805 C.3     
   9 S9            -2.6228     4.3262     0.1119 S.o2    
  10 N10           -1.2625     3.3849     0.0816 N.am    
  11 C11            1.2491     2.1414     0.0016 C.ar    
  12 O12           -2.8881     4.6251    -1.2517 O.2     
  13 O13           -2.3220     5.3524     1.0476 O.2     
  14 C14            2.0902     2.0696    -1.0958 C.ar    
  15 C15            3.2870     2.7999    -1.0950 C.ar    
  16 C16            3.6215     3.6011     0.0256 C.ar    
  17 C17            2.7440     3.6523     1.1249 C.ar    
  18 C18            1.5870     2.9429     1.1059 C.ar    
  19 C19            4.1711     2.7545    -2.1908 C.ar    
  20 C20            5.3196     3.4904    -2.1232 C.ar    
  21 C21            5.5876     4.2573    -0.9914 C.ar    
  22 N22            4.7627     4.2968     0.0268 N.ar    
  23 H23            0.9399    -0.5396    -0.0090 H       
  24 H24           -1.2112    -1.7798     0.0107 H       
  25 H25           -3.3017    -0.6093     0.0208 H       
  26 H26           -4.0670     2.1296    -1.0836 H       
  27 H27           -4.5230     1.1817     0.3490 H       
  28 H28           -4.8687     3.6370     0.6917 H       
  29 H29           -3.6616     2.9700     1.8257 H       
  30 H30            1.8269     1.4561    -1.9448 H       
  31 H31            2.9900     4.2598     1.9833 H       
  32 H32            0.9204     2.9888     1.9544 H       
  33 H33            3.9471     2.1540    -3.0601 H       
  34 H34            6.0192     3.4777    -2.9459 H       
  35 H35            6.4998     4.8341    -0.9514 H       
@<TRIPOS>BOND
   1    1    2 2
   2    1   11 1
   3    1    6 1
   4    2    3 1
   5    2   23 1
   6    3    4 2
   7    3   24 1
   8    4    5 1
   9    4   25 1
  10    5    6 1
  11    5    7 1
  12    6   10 2
  13    7    8 1
  14    7   26 1
  15    7   27 1
  16    8    9 1
  17    8   28 1
  18    8   29 1
  19    9   10 am
  20    9   12 2
  21    9   13 2
  22   11   14 ar
  23   11   18 ar
  24   14   15 ar
  25   14   30 1
  26   15   16 ar
  27   15   19 ar
  28   16   17 ar
  29   16   22 ar
  30   17   18 ar
  31   17   31 1
  32   18   32 1
  33   19   20 ar
  34   19   33 1
  35   20   21 ar
  36   20   34 1
  37   21   22 ar
  38   21   35 1

#	End of record

