#	Name: ASD03092247
#	Creating user name:	WinNT
#	Creation time:	15. 06. 2019 20:32

#	Modifying user name:	WinNT
#	Modification time:	15. 06. 2019 20:32

#	Program:	/corina/corina34_cracker 3.40 0067  02.08.2006

@<TRIPOS>MOLECULE
ASD03092247
  47   49    0    0    0
SMALL
NO_CHARGES


@<TRIPOS>ATOM
   1 C1            -0.0173     1.4248     0.0099 C.3     
   2 O2             0.0021    -0.0041     0.0020 O.3     
   3 C3             0.6051    -0.6064    -1.0544 C.ar    
   4 C4             1.1706     0.1648    -2.0584 C.ar    
   5 C5             1.7862    -0.4457    -3.1379 C.ar    
   6 O6             2.3400     0.3077    -4.1211 O.3     
   7 C7             2.2518     1.7268    -3.9786 C.3     
   8 C8             1.8358    -1.8456    -3.2116 C.ar    
   9 C9             1.2627    -2.6147    -2.1934 C.ar    
  10 C10            0.6582    -1.9964    -1.1227 C.ar    
  11 Cl11          -0.0469    -2.9523     0.1433 Cl      
  12 C12            2.4884    -2.5031    -4.3568 C.2     
  13 O13            2.9855    -1.8321    -5.2409 O.2     
  14 N14            2.5345    -3.8484    -4.4248 N.am    
  15 C15            3.1835    -4.5024    -5.5638 C.3     
  16 H16            3.4616    -3.8449    -6.3875 H       
  17 C17            4.1009    -5.6904    -5.2676 C.3     
  18 H18            4.2216    -5.9854    -4.2252 H       
  19 C19            5.3198    -5.8620    -6.1369 C.ar    
  20 C20            5.4849    -5.0724    -7.2595 C.ar    
  21 C21            6.6030    -5.2298    -8.0569 C.ar    
  22 C22            7.5563    -6.1766    -7.7316 C.ar    
  23 C23            7.3916    -6.9656    -6.6086 C.ar    
  24 C24            6.2756    -6.8052    -5.8088 C.ar    
  25 C25            2.7329    -5.9219    -5.9142 C.3     
  26 C26            1.6390    -6.5498    -5.0481 C.3     
  27 C27            2.7076    -6.3101    -7.3939 C.3     
  28 H28            1.0053     1.8021     0.0021 H       
  29 H29           -0.5445     1.7859    -0.8732 H       
  30 H30           -0.5275     1.7763     0.9067 H       
  31 H31            1.1306     1.2424    -1.9985 H       
  32 H32            2.7325     2.2080    -4.8304 H       
  33 H33            1.2038     2.0234    -3.9376 H       
  34 H34            2.7519     2.0315    -3.0593 H       
  35 H35            1.2979    -3.6929    -2.2455 H       
  36 H36            2.1380    -4.3836    -3.7197 H       
  37 H37            4.7402    -4.3327    -7.5136 H       
  38 H38            6.7316    -4.6133    -8.9343 H       
  39 H39            8.4295    -6.3001    -8.3551 H       
  40 H40            8.1362    -7.7056    -6.3546 H       
  41 H41            6.1489    -7.4191    -4.9293 H       
  42 H42            0.7264    -6.6545    -5.6349 H       
  43 H43            1.9655    -7.5318    -4.7058 H       
  44 H44            1.4458    -5.9105    -4.1867 H       
  45 H45            3.1758    -5.5224    -7.9842 H       
  46 H46            3.2540    -7.2428    -7.5342 H       
  47 H47            1.6751    -6.4417    -7.7174 H       
@<TRIPOS>BOND
   1    1    2 1
   2    1   28 1
   3    1   29 1
   4    1   30 1
   5    2    3 1
   6    3   10 ar
   7    3    4 ar
   8    4    5 ar
   9    4   31 1
  10    5    6 1
  11    5    8 ar
  12    6    7 1
  13    7   32 1
  14    7   33 1
  15    7   34 1
  16    8    9 ar
  17    8   12 1
  18    9   10 ar
  19    9   35 1
  20   10   11 1
  21   12   13 2
  22   12   14 am
  23   14   15 1
  24   14   36 1
  25   15   16 1
  26   15   25 1
  27   15   17 1
  28   17   18 1
  29   17   19 1
  30   17   25 1
  31   19   24 ar
  32   19   20 ar
  33   20   21 ar
  34   20   37 1
  35   21   22 ar
  36   21   38 1
  37   22   23 ar
  38   22   39 1
  39   23   24 ar
  40   23   40 1
  41   24   41 1
  42   25   26 1
  43   25   27 1
  44   26   42 1
  45   26   43 1
  46   26   44 1
  47   27   45 1
  48   27   46 1
  49   27   47 1

#	End of record

