#	Name: ASD03330906
#	Creating user name:	WinNT
#	Creation time:	15. 06. 2019 20:38

#	Modifying user name:	WinNT
#	Modification time:	15. 06. 2019 20:38

#	Program:	/corina/corina34_cracker 3.40 0067  02.08.2006

@<TRIPOS>MOLECULE
ASD03330906
  67   70    0    0    0
SMALL
NO_CHARGES


@<TRIPOS>ATOM
   1 C1             0.4573     1.7677     0.6044 C.2     
   2 C2             0.5091     0.2635     0.6794 C.3     
   3 N3             1.5444     2.5493     0.3391 N.pl3   
   4 N4             1.7732    -0.1792     0.0637 N.3     
   5 C5             2.9184     0.5635     0.6085 C.3     
   6 C6             2.8873     2.0118     0.1036 C.3     
   7 C7             1.1284     3.8429     0.3452 C.2     
   8 N8            -0.1599     3.8661     0.6063 N.2     
   9 C9            -0.6026     2.5973     0.7665 C.2     
  10 C10           -1.9869     2.1909     1.0663 C.2     
  11 O11           -2.2613     1.0126     1.1906 O.2     
  12 N12           -2.9488     3.1250     1.2028 N.am    
  13 C13            1.9812     5.0255     0.0996 C.ar    
  14 C14            1.9080     6.1318     0.9504 C.ar    
  15 C15            2.7073     7.2343     0.7162 C.ar    
  16 C16            3.5793     7.2444    -0.3596 C.ar    
  17 C17            3.6559     6.1483    -1.2076 C.ar    
  18 C18            2.8662     5.0387    -0.9791 C.ar    
  19 F19            4.5088     6.1646    -2.2552 F       
  20 F20            4.3580     8.3252    -0.5847 F       
  21 F21            1.0570     6.1235     1.9997 F       
  22 C22            1.9593    -1.6272     0.2265 C.3     
  23 C23            1.0394    -2.3718    -0.7433 C.3     
  24 C24            1.4512    -2.0545    -2.1822 C.3     
  25 C25            1.1542    -3.8780    -0.5003 C.3     
  26 C26           -4.3251     2.7209     1.5009 C.3     
  27 C27           -5.0491     2.3765     0.1978 C.3     
  28 C28           -5.0644     3.6031    -0.7167 C.3     
  29 O29           -5.8290     3.7518     3.2753 O.3     
  30 C30           -5.0428     3.8526     2.1904 C.2     
  31 N31           -5.0141     5.1082     1.8443 N.2     
  32 N32           -5.7407     5.7917     2.6569 N.2     
  33 C33           -6.2577     4.9954     3.5490 C.2     
  34 C34           -7.1699     5.3956     4.6798 C.3     
  35 C35           -4.3205     1.2276    -0.5022 C.3     
  36 C36           -6.4864     1.9546     0.5091 C.3     
  37 H37            0.4753    -0.0548     1.7213 H       
  38 H38           -0.3345    -0.1619     0.1358 H       
  39 H39            2.8686     0.5583     1.6973 H       
  40 H40            3.8448     0.0876     0.2870 H       
  41 H41            3.1107     2.0343    -0.9630 H       
  42 H42            3.6219     2.6066     0.6464 H       
  43 H43           -2.7299     4.0647     1.1038 H       
  44 H44            2.6516     8.0898     1.3730 H       
  45 H45            2.9299     4.1846    -1.6370 H       
  46 H46            2.9966    -1.8863     0.0146 H       
  47 H47            1.7153    -1.9121     1.2499 H       
  48 H48            0.0089    -2.0552    -0.5821 H       
  49 H49            0.8333    -2.6291    -2.8721 H       
  50 H50            1.3150    -0.9899    -2.3728 H       
  51 H51            2.4989    -2.3183    -2.3269 H       
  52 H52            0.8608    -4.1041     0.5248 H       
  53 H53            0.4988    -4.4084    -1.1912 H       
  54 H54            2.1847    -4.1946    -0.6615 H       
  55 H55           -4.3142     1.8471     2.1524 H       
  56 H56           -4.0404     3.9038    -0.9384 H       
  57 H57           -5.5802     3.3578    -1.6450 H       
  58 H58           -5.5834     4.4216    -0.2180 H       
  59 H59           -6.5733     5.6401     5.5587 H       
  60 H60           -7.7549     6.2664     4.3840 H       
  61 H61           -7.8412     4.5696     4.9148 H       
  62 H62           -4.3096     0.3538     0.1492 H       
  63 H63           -4.8363     0.9823    -1.4306 H       
  64 H64           -3.2965     1.5282    -0.7240 H       
  65 H65           -7.0055     2.7731     1.0077 H       
  66 H66           -7.0022     1.7092    -0.4193 H       
  67 H67           -6.4756     1.0807     1.1605 H       
@<TRIPOS>BOND
   1    1    2 1
   2    1    3 1
   3    1    9 2
   4    2    4 1
   5    2   37 1
   6    2   38 1
   7    3    6 1
   8    3    7 1
   9    4    5 1
  10    4   22 1
  11    5    6 1
  12    5   39 1
  13    5   40 1
  14    6   41 1
  15    6   42 1
  16    7    8 2
  17    7   13 1
  18    8    9 1
  19    9   10 1
  20   10   11 2
  21   10   12 am
  22   12   26 1
  23   12   43 1
  24   13   14 ar
  25   13   18 ar
  26   14   15 ar
  27   14   21 1
  28   15   16 ar
  29   15   44 1
  30   16   17 ar
  31   16   20 1
  32   17   18 ar
  33   17   19 1
  34   18   45 1
  35   22   23 1
  36   22   46 1
  37   22   47 1
  38   23   24 1
  39   23   25 1
  40   23   48 1
  41   24   49 1
  42   24   50 1
  43   24   51 1
  44   25   52 1
  45   25   53 1
  46   25   54 1
  47   26   27 1
  48   26   30 1
  49   26   55 1
  50   27   28 1
  51   27   35 1
  52   27   36 1
  53   28   56 1
  54   28   57 1
  55   28   58 1
  56   29   30 1
  57   29   33 1
  58   30   31 2
  59   31   32 1
  60   32   33 2
  61   33   34 1
  62   34   59 1
  63   34   60 1
  64   34   61 1
  65   35   62 1
  66   35   63 1
  67   35   64 1
  68   36   65 1
  69   36   66 1
  70   36   67 1

#	End of record

