#	Name: ASD01148479
#	Creating user name:	WinNT
#	Creation time:	15. 06. 2019 19:02

#	Modifying user name:	WinNT
#	Modification time:	15. 06. 2019 19:02

#	Program:	/corina/corina34_cracker 3.40 0067  02.08.2006

@<TRIPOS>MOLECULE
ASD01148479
  52   54    0    0    0
SMALL
NO_CHARGES


@<TRIPOS>ATOM
   1 C1             0.3639     1.8405     0.0686 C.ar    
   2 C2             0.4622     0.4637    -0.0065 C.ar    
   3 C3            -0.6818    -0.3072    -0.0940 C.ar    
   4 C4            -1.9243     0.2987    -0.1059 C.ar    
   5 C5            -2.0227     1.6754    -0.0299 C.ar    
   6 C6            -0.8788     2.4460     0.0620 C.ar    
   7 C7            -3.3772     2.3359    -0.0433 C.3     
   8 O8            -4.3695     1.4912     0.5741 O.3     
   9 C9            -3.3981     3.5754     0.8828 C.3     
  10 C10           -3.9251     3.0045     2.1856 C.2     
  11 N11           -4.4451     1.8488     1.9400 N.2     
  12 C12           -3.8550     3.6581     3.5073 C.ar    
  13 C13           -4.3821     3.0181     4.6321 C.ar    
  14 C14           -3.2565     4.9139     3.6347 C.ar    
  15 C15           -3.1912     5.5233     4.8675 C.ar    
  16 C16           -3.7228     4.8859     5.9908 C.ar    
  17 C17           -4.3167     3.6276     5.8644 C.ar    
  18 C18           -3.6518     5.5399     7.3143 C.2     
  19 O19           -4.2107     5.0389     8.2705 O.2     
  20 N20           -2.9673     6.6916     7.4610 N.am    
  21 C21           -4.8907     2.9402     7.0764 C.3     
  22 C22           -3.7868     2.7097    -1.4693 C.3     
  23 F23           -3.8258     1.5568    -2.2607 F       
  24 F24           -5.0527     3.3051    -1.4499 F       
  25 F25           -2.8566     3.6092    -2.0011 F       
  26 C26           -2.8969     7.3398     8.7729 C.3     
  27 C27           -0.5746    -1.8081    -0.1768 C.3     
  28 F28            0.7733    -2.1816    -0.1480 F       
  29 F29           -1.2414    -2.3840     0.9099 F       
  30 F30           -1.1561    -2.2521    -1.3693 F       
  31 C31           -2.0665     8.6203     8.6651 C.3     
  32 F32           -2.6663     9.4892     7.7473 F       
  33 F33           -1.9992     9.2393     9.9179 F       
  34 F34           -0.7747     8.3033     8.2317 F       
  35 C35            1.6111     2.6809     0.1639 C.3     
  36 F36            2.7357     1.8488     0.1589 F       
  37 F37            1.6709     3.5523    -0.9289 F       
  38 F38            1.5847     3.4219     1.3503 F       
  39 H39            1.4329    -0.0096     0.0028 H       
  40 H40           -2.8181    -0.3036    -0.1749 H       
  41 H41           -0.9556     3.5217     0.1214 H       
  42 H42           -2.3934     3.9769     1.0146 H       
  43 H43           -4.0728     4.3379     0.4935 H       
  44 H44           -4.8412     2.0454     4.5345 H       
  45 H45           -2.8447     5.4065     2.7663 H       
  46 H46           -2.7285     6.4942     4.9661 H       
  47 H47           -2.5213     7.0913     6.6980 H       
  48 H48           -5.8980     3.3128     7.2624 H       
  49 H49           -4.9276     1.8651     6.9009 H       
  50 H50           -4.2617     3.1456     7.9426 H       
  51 H51           -3.9034     7.5868     9.1106 H       
  52 H52           -2.4296     6.6628     9.4880 H       
@<TRIPOS>BOND
   1    1    2 ar
   2    1   35 1
   3    1    6 ar
   4    2    3 ar
   5    2   39 1
   6    3    4 ar
   7    3   27 1
   8    4    5 ar
   9    4   40 1
  10    5    6 ar
  11    5    7 1
  12    6   41 1
  13    7    8 1
  14    7    9 1
  15    7   22 1
  16    8   11 1
  17    9   10 1
  18    9   42 1
  19    9   43 1
  20   10   11 2
  21   10   12 1
  22   12   13 ar
  23   12   14 ar
  24   13   17 ar
  25   13   44 1
  26   14   15 ar
  27   14   45 1
  28   15   16 ar
  29   15   46 1
  30   16   17 ar
  31   16   18 1
  32   17   21 1
  33   18   19 2
  34   18   20 am
  35   20   26 1
  36   20   47 1
  37   21   48 1
  38   21   49 1
  39   21   50 1
  40   22   23 1
  41   22   24 1
  42   22   25 1
  43   26   31 1
  44   26   51 1
  45   26   52 1
  46   27   28 1
  47   27   29 1
  48   27   30 1
  49   31   32 1
  50   31   33 1
  51   31   34 1
  52   35   36 1
  53   35   37 1
  54   35   38 1

#	End of record

