#	Name: ASD01915441
#	Creating user name:	WinNT
#	Creation time:	15. 06. 2019 20:05

#	Modifying user name:	WinNT
#	Modification time:	15. 06. 2019 20:05

#	Program:	/corina/corina34_cracker 3.40 0067  02.08.2006

@<TRIPOS>MOLECULE
ASD01915441
  45   49    0    0    0
SMALL
NO_CHARGES


@<TRIPOS>ATOM
   1 N1            -0.0169     1.3936     0.0097 N.pl3   
   2 N2             0.0021    -0.0041     0.0020 N.2     
   3 C3             1.2407    -0.4349    -0.0121 C.2     
   4 C4             2.1134     0.7408    -0.0141 C.ar    
   5 C5             1.2676     1.8669    -0.0000 C.ar    
   6 N6             1.7798     3.0923     0.0013 N.ar    
   7 C7             3.5085     0.9202    -0.0265 C.ar    
   8 C8             4.0014     2.2379    -0.0241 C.ar    
   9 C9             3.0831     3.3083    -0.0104 C.ar    
  10 C10            1.6769    -1.8517    -0.0235 C.ar    
  11 C11            0.9451    -2.8148     0.6702 C.ar    
  12 C12            1.3554    -4.1321     0.6565 C.ar    
  13 C13            2.4907    -4.4989    -0.0436 C.ar    
  14 C14            3.2219    -3.5475    -0.7339 C.ar    
  15 C15            2.8169    -2.2269    -0.7321 C.ar    
  16 C16            5.4114     2.4881    -0.0359 C.1     
  17 N17            6.5299     2.6865    -0.0453 N.1     
  18 C18            3.5893     4.7004    -0.0082 C.ar    
  19 C19            2.8932     5.6996    -0.6881 C.ar    
  20 C20            3.3695     6.9946    -0.6820 C.ar    
  21 C21            4.5349     7.3028    -0.0032 C.ar    
  22 C22            5.2301     6.3159     0.6726 C.ar    
  23 C23            4.7607     5.0183     0.6786 C.ar    
  24 C24            4.4276    -0.2392    -0.0410 C.ar    
  25 C25            5.2521    -0.4660    -1.1438 C.ar    
  26 C26            6.1069    -1.5489    -1.1511 C.ar    
  27 C27            6.1473    -2.4094    -0.0684 C.ar    
  28 C28            5.3324    -2.1901     1.0280 C.ar    
  29 C29            4.4777    -1.1074     1.0504 C.ar    
  30 Cl30           4.6458    -4.0162    -1.6094 Cl      
  31 H31           -0.8163     1.9429     0.0166 H       
  32 H32            0.0587    -2.5300     1.2175 H       
  33 H33            0.7891    -4.8785     1.1939 H       
  34 H34            2.8080    -5.5312    -0.0514 H       
  35 H35            3.3848    -1.4859    -1.2751 H       
  36 H36            1.9834     5.4601    -1.2186 H       
  37 H37            2.8315     7.7691    -1.2084 H       
  38 H38            4.9038     8.3178    -0.0013 H       
  39 H39            6.1397     6.5624     1.2001 H       
  40 H40            5.3016     4.2497     1.2107 H       
  41 H41            5.2210     0.2046    -1.9898 H       
  42 H42            6.7455    -1.7255    -2.0039 H       
  43 H43            6.8177    -3.2561    -0.0793 H       
  44 H44            5.3685    -2.8657     1.8699 H       
  45 H45            3.8456    -0.9346     1.9089 H       
@<TRIPOS>BOND
   1    1    2 1
   2    1    5 1
   3    1   31 1
   4    2    3 2
   5    3    4 1
   6    3   10 1
   7    4    7 ar
   8    4    5 ar
   9    5    6 ar
  10    6    9 ar
  11    7    8 ar
  12    7   24 1
  13    8    9 ar
  14    8   16 1
  15    9   18 1
  16   10   11 ar
  17   10   15 ar
  18   11   12 ar
  19   11   32 1
  20   12   13 ar
  21   12   33 1
  22   13   14 ar
  23   13   34 1
  24   14   15 ar
  25   14   30 1
  26   15   35 1
  27   16   17 3
  28   18   19 ar
  29   18   23 ar
  30   19   20 ar
  31   19   36 1
  32   20   21 ar
  33   20   37 1
  34   21   22 ar
  35   21   38 1
  36   22   23 ar
  37   22   39 1
  38   23   40 1
  39   24   25 ar
  40   24   29 ar
  41   25   26 ar
  42   25   41 1
  43   26   27 ar
  44   26   42 1
  45   27   28 ar
  46   27   43 1
  47   28   29 ar
  48   28   44 1
  49   29   45 1

#	End of record

