#	Name: ASD03330778
#	Creating user name:	WinNT
#	Creation time:	15. 06. 2019 20:37

#	Modifying user name:	WinNT
#	Modification time:	15. 06. 2019 20:37

#	Program:	/corina/corina34_cracker 3.40 0067  02.08.2006

@<TRIPOS>MOLECULE
ASD03330778
  57   59    0    0    0
SMALL
NO_CHARGES


@<TRIPOS>ATOM
   1 C1            -0.0159     1.3550     0.0393 C.2     
   2 N2             0.0042    -0.0047     0.0503 N.pl3   
   3 C3             1.2778     1.7739    -0.0302 C.2     
   4 N4             2.0648     0.6764    -0.0780 N.2     
   5 C5             1.3084    -0.3957    -0.0359 C.2     
   6 C6             1.7895    -1.7933    -0.0755 C.ar    
   7 C7             1.7375     3.1737    -0.0503 C.2     
   8 O8             0.9282     4.0803    -0.0025 O.2     
   9 C9             3.5119     4.8412    -0.1416 C.3     
  10 N10            3.0549     3.4494    -0.1216 N.am    
  11 C11            4.8776     4.9197    -0.8269 C.3     
  12 C12            3.6288     5.3518     1.2714 C.2     
  13 O13            3.3571     4.6248     2.2034 O.2     
  14 C14           -1.1734    -0.8711     0.1521 C.3     
  15 C15           -2.2420    -0.3838    -0.8313 C.3     
  16 C16           -3.1085     0.6805    -0.1657 C.3     
  17 N17           -2.3245     1.4888     0.7702 N.3     
  18 C18           -1.2510     2.2172     0.0779 C.3     
  19 C19            2.7355    -2.1830    -1.0280 C.ar    
  20 C20            1.3054    -2.7268     0.8414 C.ar    
  21 C21            1.7576    -4.0291     0.8007 C.ar    
  22 C22            3.1811    -3.4904    -1.0590 C.ar    
  23 C23           -3.1876     2.4109     1.5204 C.3     
  24 N24            4.0353     6.6164     1.4995 N.am    
  25 C25            4.7345     4.5195    -2.2967 C.3     
  26 C26            3.8586     5.5438    -3.0211 C.3     
  27 C27            6.1170     4.4773    -2.9507 C.3     
  28 F28            3.2125    -1.2836    -1.9161 F       
  29 C29            2.6921    -4.4127    -0.1483 C.ar    
  30 F30            3.1312    -5.6899    -0.1824 F       
  31 H31            2.7945     5.4514    -0.6903 H       
  32 H32            3.7003     2.7264    -0.1598 H       
  33 H33            5.2580     5.9392    -0.7633 H       
  34 H34            5.5722     4.2412    -0.3316 H       
  35 H35           -0.8938    -1.8960    -0.0921 H       
  36 H36           -1.5677    -0.8322     1.1675 H       
  37 H37           -1.7585     0.0407    -1.7111 H       
  38 H38           -2.8675    -1.2241    -1.1326 H       
  39 H39           -3.5300     1.3298    -0.9330 H       
  40 H40           -3.9203     0.1939     0.3751 H       
  41 H41           -1.0337     3.1414     0.6133 H       
  42 H42           -1.5654     2.4493    -0.9396 H       
  43 H43            0.5777    -2.4299     1.5822 H       
  44 H44            1.3829    -4.7518     1.5105 H       
  45 H45            3.9120    -3.7937    -1.7941 H       
  46 H46           -3.9254     1.8403     2.0844 H       
  47 H47           -2.5799     2.9990     2.2080 H       
  48 H48           -3.6979     3.0776     0.8252 H       
  49 H49            4.2527     7.1979     0.7541 H       
  50 H50            4.1106     6.9451     2.4090 H       
  51 H51            4.2715     3.5349    -2.3617 H       
  52 H52            4.3216     6.5284    -2.9560 H       
  53 H53            3.7567     5.2587    -4.0682 H       
  54 H54            2.8737     5.5739    -2.5551 H       
  55 H55            6.7409     3.7476    -2.4346 H       
  56 H56            6.0150     4.1922    -3.9978 H       
  57 H57            6.5799     5.4620    -2.8857 H       
@<TRIPOS>BOND
   1    1    2 1
   2    1    3 2
   3    1   18 1
   4    2   14 1
   5    2    5 1
   6    3    4 1
   7    3    7 1
   8    4    5 2
   9    5    6 1
  10    6   20 ar
  11    6   19 ar
  12    7    8 2
  13    7   10 am
  14    9   10 1
  15    9   11 1
  16    9   12 1
  17    9   31 1
  18   10   32 1
  19   11   25 1
  20   11   33 1
  21   11   34 1
  22   12   13 2
  23   12   24 am
  24   14   15 1
  25   14   35 1
  26   14   36 1
  27   15   16 1
  28   15   37 1
  29   15   38 1
  30   16   17 1
  31   16   39 1
  32   16   40 1
  33   17   18 1
  34   17   23 1
  35   18   41 1
  36   18   42 1
  37   19   28 1
  38   19   22 ar
  39   20   21 ar
  40   20   43 1
  41   21   29 ar
  42   21   44 1
  43   22   29 ar
  44   22   45 1
  45   23   46 1
  46   23   47 1
  47   23   48 1
  48   24   49 1
  49   24   50 1
  50   25   27 1
  51   25   26 1
  52   25   51 1
  53   26   52 1
  54   26   53 1
  55   26   54 1
  56   27   55 1
  57   27   56 1
  58   27   57 1
  59   29   30 1

#	End of record

