#	Name: ASD01917922
#	Creating user name:	WinNT
#	Creation time:	15. 06. 2019 20:10

#	Modifying user name:	WinNT
#	Modification time:	15. 06. 2019 20:10

#	Program:	/corina/corina34_cracker 3.40 0067  02.08.2006

@<TRIPOS>MOLECULE
ASD01917922
  37   40    0    0    0
SMALL
NO_CHARGES


@<TRIPOS>ATOM
   1 N1             4.8220    -0.4106    -2.1399 N.ar    
   2 C2             5.2888     0.2867    -3.1572 C.ar    
   3 C3             5.1760     1.6664    -3.1838 C.ar    
   4 C4             4.5619     2.3156    -2.1220 C.ar    
   5 C5             4.0814     1.5473    -1.0669 C.ar    
   6 C6             4.2326     0.1684    -1.1130 C.ar    
   7 F7             5.6582     2.3720    -4.2301 F       
   8 O8             3.4732     2.1385    -0.0052 O.3     
   9 C9             3.4534     3.4976     0.0439 C.2     
  10 N10            2.2019     5.5098    -0.0225 N.pl3   
  11 C11            2.2704     4.1540    -0.0660 C.2     
  12 C12            4.6528     4.1997     0.2128 C.2     
  13 C13            4.6244     5.5889     0.2625 C.2     
  14 C14            3.3317     6.2614     0.1351 C.2     
  15 C15            5.8642     6.3636     0.4395 C.2     
  16 N16            5.8169     7.7098     0.4853 N.am    
  17 C17            6.9734     8.4389     0.7582 C.ar    
  18 N18            8.1340     7.8114     0.8639 N.ar    
  19 C19            6.8970     9.8184     0.9109 C.ar    
  20 C20            8.0521    10.5312     1.1811 C.ar    
  21 C21            9.2501     9.8353     1.2898 C.ar    
  22 C22            9.2523     8.4624     1.1206 C.ar    
  23 O23            6.9308     5.7886     0.5443 O.2     
  24 N24            1.1388     6.4205    -0.1096 N.2     
  25 C25            1.6530     7.6235    -0.0118 C.2     
  26 N26            2.9681     7.5341     0.1406 N.2     
  27 F27           10.4006    10.4930     1.5522 F       
  28 H28            5.7656    -0.2251    -3.9801 H       
  29 H29            4.4599     3.3907    -2.1150 H       
  30 H30            3.8632    -0.4369    -0.2984 H       
  31 H31            1.3614     3.5843    -0.1913 H       
  32 H32            5.5888     3.6686     0.3038 H       
  33 H33            4.9783     8.1712     0.3284 H       
  34 H34            5.9488    10.3273     0.8195 H       
  35 H35            8.0232    11.6038     1.3043 H       
  36 H36           10.1809     7.9168     1.1999 H       
  37 H37            1.0911     8.5452    -0.0434 H       
@<TRIPOS>BOND
   1    1    2 ar
   2    1    6 ar
   3    2    3 ar
   4    2   28 1
   5    3    4 ar
   6    3    7 1
   7    4    5 ar
   8    4   29 1
   9    5    6 ar
  10    5    8 1
  11    6   30 1
  12    8    9 1
  13    9   12 1
  14    9   11 2
  15   10   11 1
  16   10   24 1
  17   10   14 1
  18   11   31 1
  19   12   13 2
  20   12   32 1
  21   13   14 1
  22   13   15 1
  23   14   26 2
  24   15   16 am
  25   15   23 2
  26   16   17 1
  27   16   33 1
  28   17   19 ar
  29   17   18 ar
  30   18   22 ar
  31   19   20 ar
  32   19   34 1
  33   20   21 ar
  34   20   35 1
  35   21   22 ar
  36   21   27 1
  37   22   36 1
  38   24   25 2
  39   25   26 1
  40   25   37 1

#	End of record

