#	Name: ASD03331109
#	Creating user name:	WinNT
#	Creation time:	15. 06. 2019 20:38

#	Modifying user name:	WinNT
#	Modification time:	15. 06. 2019 20:38

#	Program:	/corina/corina34_cracker 3.40 0067  02.08.2006

@<TRIPOS>MOLECULE
ASD03331109
  54   57    0    0    0
SMALL
NO_CHARGES


@<TRIPOS>ATOM
   1 C1             0.3629     1.7263    -0.4094 C.3     
   2 C2            -0.6451     1.8145    -1.5569 C.3     
   3 C3            -0.4238     0.4845    -0.8337 C.3     
   4 C4             1.8268     1.7773    -0.7636 C.2     
   5 O5             2.1914     1.4634    -1.8720 O.2     
   6 O6             2.7256     2.1715     0.1521 O.3     
   7 C7            -0.1544     3.6941     0.9313 C.2     
   8 O8             0.0953     4.3858    -0.0374 O.2     
   9 N9            -0.0022     2.3568     0.8616 N.am    
  10 N10           -1.2380     5.7964     3.6746 N.pl3   
  11 C11           -0.8202     5.6491     2.3888 C.2     
  12 C12           -0.6302     6.7647     1.3945 C.3     
  13 N13            0.1287     7.8531     2.0302 N.3     
  14 C14           -0.7638     8.8005     2.7007 C.3     
  15 C15           -1.9834     8.0873     3.2774 C.3     
  16 C16           -1.5387     7.0710     4.3328 C.3     
  17 C17           -1.3099     4.5504     4.2262 C.2     
  18 N18           -0.9352     3.6716     3.3261 N.2     
  19 C19           -0.6234     4.3181     2.1811 C.2     
  20 C20            0.9854     8.5381     1.0531 C.3     
  21 C21           -1.7377     4.2417     5.6076 C.ar    
  22 C22           -2.6373     3.1991     5.8469 C.ar    
  23 C23           -3.0328     2.9152     7.1399 C.ar    
  24 C24           -2.5397     3.6621     8.1971 C.ar    
  25 C25           -1.6472     4.6979     7.9644 C.ar    
  26 C26           -1.2404     4.9864     6.6775 C.ar    
  27 F27           -2.9300     3.3808     9.4595 F       
  28 F28           -3.1193     2.4708     4.8161 F       
  29 Cl29          -1.0353     5.6293     9.2955 Cl      
  30 C30            4.1180     2.1963    -0.2590 C.3     
  31 C31            4.9862     2.6679     0.9092 C.3     
  32 H32           -1.5800     2.3416    -1.3663 H       
  33 H33           -0.2495     1.9094    -2.5682 H       
  34 H34            0.1175    -0.2955    -1.3691 H       
  35 H35           -1.2130     0.1366    -0.1672 H       
  36 H36           -0.1344     1.8117     1.6531 H       
  37 H37           -0.0794     6.3928     0.5305 H       
  38 H38           -1.6033     7.1374     1.0748 H       
  39 H39           -0.2219     9.2929     3.5082 H       
  40 H40           -1.0942     9.5510     1.9826 H       
  41 H41           -2.6478     8.8193     3.7365 H       
  42 H42           -2.5129     7.5704     2.4771 H       
  43 H43           -2.3384     6.9264     5.0591 H       
  44 H44           -0.6466     7.4388     4.8397 H       
  45 H45            0.3754     8.8988     0.2249 H       
  46 H46            1.4815     9.3816     1.5331 H       
  47 H47            1.7349     7.8422     0.6762 H       
  48 H48           -3.7279     2.1099     7.3266 H       
  49 H49           -0.5416     5.7902     6.4985 H       
  50 H50            4.4260     1.1948    -0.5595 H       
  51 H51            4.2366     2.8804    -1.0992 H       
  52 H52            4.6782     3.6694     1.2097 H       
  53 H53            4.8676     1.9838     1.7494 H       
  54 H54            6.0315     2.6865     0.6006 H       
@<TRIPOS>BOND
   1    1    2 1
   2    1    3 1
   3    1    4 1
   4    1    9 1
   5    2    3 1
   6    2   32 1
   7    2   33 1
   8    3   34 1
   9    3   35 1
  10    4    5 2
  11    4    6 1
  12    6   30 1
  13    7    8 2
  14    7    9 am
  15    7   19 1
  16    9   36 1
  17   10   11 1
  18   10   16 1
  19   10   17 1
  20   11   12 1
  21   11   19 2
  22   12   13 1
  23   12   37 1
  24   12   38 1
  25   13   14 1
  26   13   20 1
  27   14   15 1
  28   14   39 1
  29   14   40 1
  30   15   16 1
  31   15   41 1
  32   15   42 1
  33   16   43 1
  34   16   44 1
  35   17   18 2
  36   17   21 1
  37   18   19 1
  38   20   45 1
  39   20   46 1
  40   20   47 1
  41   21   22 ar
  42   21   26 ar
  43   22   23 ar
  44   22   28 1
  45   23   24 ar
  46   23   48 1
  47   24   25 ar
  48   24   27 1
  49   25   26 ar
  50   25   29 1
  51   26   49 1
  52   30   31 1
  53   30   50 1
  54   30   51 1
  55   31   52 1
  56   31   53 1
  57   31   54 1

#	End of record

