#	Name: ASD03092153
#	Creating user name:	WinNT
#	Creation time:	15. 06. 2019 20:32

#	Modifying user name:	WinNT
#	Modification time:	15. 06. 2019 20:32

#	Program:	/corina/corina34_cracker 3.40 0067  02.08.2006

@<TRIPOS>MOLECULE
ASD03092153
  47   49    0    0    0
SMALL
NO_CHARGES


@<TRIPOS>ATOM
   1 N1             0.2765     0.9026    -0.3970 N.pl3   
   2 C2             0.0752    -0.3536     0.0930 C.2     
   3 C3            -1.2657    -0.4990     0.3079 C.2     
   4 C4            -1.8908     0.6986    -0.0612 C.2     
   5 N5            -0.9696     1.5373    -0.4763 N.2     
   6 N6            -3.2648     0.9598     0.0068 N.pl3   
   7 C7            -3.7478     2.2386    -0.2810 C.ar    
   8 C8            -5.0287     2.3998    -0.7932 C.ar    
   9 C9            -5.5033     3.6667    -1.0769 C.ar    
  10 C10           -4.7033     4.7731    -0.8510 C.ar    
  11 C11           -2.9498     3.3526    -0.0502 C.ar    
  12 C12            1.1178    -1.3723     0.3452 C.ar    
  13 C13            1.5674     1.4871    -0.7687 C.3     
  14 C14            2.3531    -1.3143    -0.3095 C.ar    
  15 C15            3.2968    -2.2848    -0.0442 C.ar    
  16 N16            3.0469    -3.2565     0.8126 N.ar    
  17 C17            1.8957    -3.3482     1.4512 C.ar    
  18 C18            0.8981    -2.4176     1.2498 C.ar    
  19 C19           -3.4274     4.6150    -0.3414 C.ar    
  20 Cl20          -7.1038     3.8700    -1.7177 Cl      
  21 C21            1.8046     1.2846    -2.2431 C.2     
  22 C22            1.6701    -4.4822     2.4177 C.3     
  23 O23            0.3621    -4.3735     2.9827 O.3     
  24 C24            0.0453    -5.4063     3.9181 C.3     
  25 N25            2.9367     1.7434    -2.8128 N.am    
  26 O26            0.9769     0.7088    -2.9170 O.2     
  27 C27            3.1673     1.5465    -4.2461 C.3     
  28 H28           -1.7565    -1.3804     0.6937 H       
  29 H29           -3.8812     0.2528     0.2538 H       
  30 H30           -5.6529     1.5363    -0.9700 H       
  31 H31           -5.0761     5.7620    -1.0733 H       
  32 H32           -1.9550     3.2307     0.3522 H       
  33 H33            1.5613     2.5538    -0.5449 H       
  34 H34            2.3625     1.0016    -0.2028 H       
  35 H35            2.5643    -0.5220    -1.0123 H       
  36 H36            4.2531    -2.2489    -0.5448 H       
  37 H37           -0.0416    -2.4988     1.7759 H       
  38 H38           -2.8054     5.4805    -0.1669 H       
  39 H39            1.7604    -5.4321     1.8907 H       
  40 H40            2.4144    -4.4356     3.2127 H       
  41 H41            0.1019    -6.3754     3.4223 H       
  42 H42            0.7558    -5.3788     4.7442 H       
  43 H43           -0.9635    -5.2526     4.3012 H       
  44 H44            3.5987     2.2039    -2.2738 H       
  45 H45            2.3722     2.0320    -4.8120 H       
  46 H46            4.1277     1.9813    -4.5226 H       
  47 H47            3.1734     0.4798    -4.4699 H       
@<TRIPOS>BOND
   1    1    2 1
   2    1   13 1
   3    1    5 1
   4    2    3 2
   5    2   12 1
   6    3    4 1
   7    3   28 1
   8    4    5 2
   9    4    6 1
  10    6    7 1
  11    6   29 1
  12    7    8 ar
  13    7   11 ar
  14    8    9 ar
  15    8   30 1
  16    9   10 ar
  17    9   20 1
  18   10   19 ar
  19   10   31 1
  20   11   19 ar
  21   11   32 1
  22   12   14 ar
  23   12   18 ar
  24   13   21 1
  25   13   33 1
  26   13   34 1
  27   14   15 ar
  28   14   35 1
  29   15   16 ar
  30   15   36 1
  31   16   17 ar
  32   17   18 ar
  33   17   22 1
  34   18   37 1
  35   19   38 1
  36   21   25 am
  37   21   26 2
  38   22   23 1
  39   22   39 1
  40   22   40 1
  41   23   24 1
  42   24   41 1
  43   24   42 1
  44   24   43 1
  45   25   27 1
  46   25   44 1
  47   27   45 1
  48   27   46 1
  49   27   47 1

#	End of record

