#	Name: ASD01140286
#	Creating user name:	WinNT
#	Creation time:	15. 06. 2019 19:00

#	Modifying user name:	WinNT
#	Modification time:	15. 06. 2019 19:00

#	Program:	/corina/corina34_cracker 3.40 0067  02.08.2006

@<TRIPOS>MOLECULE
ASD01140286
  46   49    0    0    0
SMALL
NO_CHARGES


@<TRIPOS>ATOM
   1 C1             0.1558     1.0792    -2.2032 C.ar    
   2 C2             0.2764    -0.3033    -2.3702 C.ar    
   3 C3             1.4662    -0.9452    -2.0264 C.ar    
   4 C4             2.5199    -0.2003    -1.5220 C.ar    
   5 C5             2.4076     1.1969    -1.3918 C.ar    
   6 C6             1.2119     1.8207    -1.7180 C.ar    
   7 C7             3.7813    -0.8570    -1.0722 C.2     
   8 N8             4.8918    -0.4495    -1.5802 N.2     
   9 C9             5.0144     0.7044    -2.4648 C.3     
  10 C10            4.8277     1.9856    -1.6621 C.3     
  11 N11            3.5128     1.9106    -0.9787 N.pl3   
  12 C12            3.6865     2.5219     0.2356 C.2     
  13 C13            5.8006     2.1677    -0.5010 C.3     
  14 N14            4.9200     2.6608     0.5762 N.2     
  15 C15            3.7569    -1.9462    -0.0698 C.ar    
  16 C16            4.9308    -2.6351     0.2468 C.ar    
  17 C17            2.5634    -2.2856     0.5671 C.ar    
  18 C18            2.5470    -3.3012     1.5007 C.ar    
  19 C19            3.7110    -3.9839     1.8070 C.ar    
  20 C20            4.8999    -3.6507     1.1844 C.ar    
  21 F21            6.0923    -2.3099    -0.3617 F       
  22 C22           -0.8209    -1.0602    -2.8933 C.1     
  23 C23           -1.7205    -1.6808    -3.3222 C.1     
  24 C24            6.4301     0.8531    -0.1185 C.2     
  25 O25            5.8117     0.0588     0.5498 O.2     
  26 O26            7.6780     0.5644    -0.5202 O.3     
  27 C27            8.2694    -0.6584    -0.0071 C.3     
  28 C28            9.7312    -0.7431    -0.4507 C.3     
  29 H29           -0.7706     1.5711    -2.4606 H       
  30 H30            1.5651    -2.0133    -2.1521 H       
  31 H31            1.1085     2.8883    -1.5921 H       
  32 H32            6.0023     0.7054    -2.9254 H       
  33 H33            4.2521     0.6486    -3.2420 H       
  34 H34            4.8542     2.8490    -2.3269 H       
  35 H35            2.8640     2.8569     0.8501 H       
  36 H36            6.5631     2.9068    -0.7467 H       
  37 H37            1.6536    -1.7541     0.3301 H       
  38 H38            1.6230    -3.5639     1.9942 H       
  39 H39            3.6918    -4.7778     2.5390 H       
  40 H40            5.8048    -4.1877     1.4277 H       
  41 H41           -2.5251    -2.2358    -3.7058 H       
  42 H42            8.2196    -0.6570     1.0818 H       
  43 H43            7.7217    -1.5174    -0.3948 H       
  44 H44            9.7810    -0.7444    -1.5395 H       
  45 H45           10.2789     0.1159    -0.0630 H       
  46 H46           10.1752    -1.6610    -0.0655 H       
@<TRIPOS>BOND
   1    1    2 ar
   2    1    6 ar
   3    1   29 1
   4    2    3 ar
   5    2   22 1
   6    3    4 ar
   7    3   30 1
   8    4    5 ar
   9    4    7 1
  10    5    6 ar
  11    5   11 1
  12    6   31 1
  13    7    8 2
  14    7   15 1
  15    8    9 1
  16    9   10 1
  17    9   32 1
  18    9   33 1
  19   10   11 1
  20   10   13 1
  21   10   34 1
  22   11   12 1
  23   12   14 2
  24   12   35 1
  25   13   14 1
  26   13   24 1
  27   13   36 1
  28   15   16 ar
  29   15   17 ar
  30   16   21 1
  31   16   20 ar
  32   17   18 ar
  33   17   37 1
  34   18   19 ar
  35   18   38 1
  36   19   20 ar
  37   19   39 1
  38   20   40 1
  39   22   23 3
  40   23   41 1
  41   24   25 2
  42   24   26 1
  43   26   27 1
  44   27   28 1
  45   27   42 1
  46   27   43 1
  47   28   44 1
  48   28   45 1
  49   28   46 1

#	End of record

