#	Name: ASD03430437
#	Creating user name:	WinNT
#	Creation time:	15. 06. 2019 20:41

#	Modifying user name:	WinNT
#	Modification time:	15. 06. 2019 20:41

#	Program:	/corina/corina34_cracker 3.40 0067  02.08.2006

@<TRIPOS>MOLECULE
ASD03430437
  58   63    0    0    0
SMALL
NO_CHARGES


@<TRIPOS>ATOM
   1 O1            -0.9973     4.3961     0.0159 O.3     
   2 C2            -1.4809     3.1472     0.1047 C.2     
   3 N3            -0.4575     2.2727     0.1697 N.am    
   4 C4             0.7276     3.0101     0.1191 C.ar    
   5 C5             0.3576     4.3516     0.0218 C.ar    
   6 C6             2.0675     2.6586     0.1475 C.ar    
   7 C7             3.0382     3.6392     0.0793 C.ar    
   8 C8             2.6734     4.9750    -0.0175 C.ar    
   9 C9             1.3345     5.3317    -0.0463 C.ar    
  10 O10           -2.6601     2.8506     0.1241 O.2     
  11 C11           -0.5678     0.8157     0.2747 C.3     
  12 O12            3.6326     5.9364    -0.0839 O.3     
  13 N13            6.1549     4.6080    -0.7378 N.am    
  14 C14            5.1998     3.7506    -1.1359 C.2     
  15 C15            4.4958     3.2579     0.1106 C.3     
  16 C16            5.2053     3.9702     1.2391 C.ar    
  17 C17            5.0427     3.9531     2.6061 C.ar    
  18 C18            5.8613     4.7288     3.4083 C.ar    
  19 C19            6.8401     5.5184     2.8327 C.ar    
  20 C20            7.0051     5.5374     1.4633 C.ar    
  21 C21            6.1846     4.7590     0.6490 C.ar    
  22 O22            4.9488     3.4318    -2.2788 O.2     
  23 O23            4.6391     1.8420     0.2400 O.3     
  24 C24            7.0646     5.2999    -1.6543 C.3     
  25 C25            8.4864     5.1016    -1.1956 C.ar    
  26 C26            9.3788     6.1565    -1.2351 C.ar    
  27 C27           10.6830     5.9746    -0.8145 C.ar    
  28 C28           11.0946     4.7380    -0.3539 C.ar    
  29 C29           10.2019     3.6833    -0.3136 C.ar    
  30 C30            8.8966     3.8663    -0.7302 C.ar    
  31 C31            6.9018     4.7380    -3.0431 C.ar    
  32 C32            6.4686     5.5531    -4.0721 C.ar    
  33 C33            6.3193     5.0377    -5.3460 C.ar    
  34 C34            6.6035     3.7072    -5.5911 C.ar    
  35 C35            7.0376     2.8923    -4.5623 C.ar    
  36 C36            7.1911     3.4088    -3.2893 C.ar    
  37 H37            2.3527     1.6196     0.2231 H       
  38 H38            1.0532     6.3717    -0.1218 H       
  39 H39           -1.6199     0.5313     0.2929 H       
  40 H40           -0.0808     0.3517    -0.5830 H       
  41 H41           -0.0847     0.4799     1.1924 H       
  42 H42            3.9125     6.1513    -0.9842 H       
  43 H43            4.2771     3.3355     3.0519 H       
  44 H44            5.7360     4.7178     4.4809 H       
  45 H45            7.4786     6.1239     3.4589 H       
  46 H46            7.7717     6.1566     1.0214 H       
  47 H47            4.2279     1.3381    -0.4756 H       
  48 H48            6.8309     6.3645    -1.6634 H       
  49 H49            9.0573     7.1227    -1.5950 H       
  50 H50           11.3805     6.7986    -0.8460 H       
  51 H51           12.1137     4.5957    -0.0259 H       
  52 H52           10.5235     2.7170     0.0460 H       
  53 H53            8.1981     3.0433    -0.6952 H       
  54 H54            6.2466     6.5925    -3.8807 H       
  55 H55            5.9802     5.6743    -6.1498 H       
  56 H56            6.4861     3.3044    -6.5862 H       
  57 H57            7.2593     1.8528    -4.7537 H       
  58 H58            7.5337     2.7731    -2.4863 H       
@<TRIPOS>BOND
   1    1    2 1
   2    1    5 1
   3    2    3 am
   4    2   10 2
   5    3    4 1
   6    3   11 1
   7    4    5 ar
   8    4    6 ar
   9    5    9 ar
  10    6    7 ar
  11    6   37 1
  12    7    8 ar
  13    7   15 1
  14    8    9 ar
  15    8   12 1
  16    9   38 1
  17   11   39 1
  18   11   40 1
  19   11   41 1
  20   12   42 1
  21   13   14 am
  22   13   21 1
  23   13   24 1
  24   14   15 1
  25   14   22 2
  26   15   16 1
  27   15   23 1
  28   16   17 ar
  29   16   21 ar
  30   17   18 ar
  31   17   43 1
  32   18   19 ar
  33   18   44 1
  34   19   20 ar
  35   19   45 1
  36   20   21 ar
  37   20   46 1
  38   23   47 1
  39   24   25 1
  40   24   31 1
  41   24   48 1
  42   25   26 ar
  43   25   30 ar
  44   26   27 ar
  45   26   49 1
  46   27   28 ar
  47   27   50 1
  48   28   29 ar
  49   28   51 1
  50   29   30 ar
  51   29   52 1
  52   30   53 1
  53   31   32 ar
  54   31   36 ar
  55   32   33 ar
  56   32   54 1
  57   33   34 ar
  58   33   55 1
  59   34   35 ar
  60   34   56 1
  61   35   36 ar
  62   35   57 1
  63   36   58 1

#	End of record

