#	Name: ASD03731865
#	Creating user name:	WinNT
#	Creation time:	15. 06. 2019 20:46

#	Modifying user name:	WinNT
#	Modification time:	15. 06. 2019 20:46

#	Program:	/corina/corina34_cracker 3.40 0067  02.08.2006

@<TRIPOS>MOLECULE
ASD03731865
  29   30    0    0    0
SMALL
NO_CHARGES


@<TRIPOS>ATOM
   1 C1             0.1065     1.3978     0.8812 C.2     
   2 C2             0.0938    -0.0576     0.6438 C.ar    
   3 C3             0.2779    -0.9433     1.7097 C.ar    
   4 C4             0.2649    -2.3012     1.4839 C.ar    
   5 C5             0.0694    -2.7923     0.1979 C.ar    
   6 C6            -0.1142    -1.9148    -0.8650 C.ar    
   7 C7            -0.1083    -0.5555    -0.6468 C.ar    
   8 O8             0.2772     1.8286     2.0043 O.2     
   9 O9            -0.0656     2.2499    -0.1484 O.3     
  10 O10            0.0581    -4.1313    -0.0206 O.3     
  11 C11           -1.1275    -4.7862     0.0918 C.ar    
  12 C12           -2.2969    -4.0728     0.3140 C.ar    
  13 C13           -3.5007    -4.7402     0.4280 C.ar    
  14 C14           -3.5412    -6.1194     0.3208 C.ar    
  15 C15           -2.3765    -6.8324     0.0993 C.ar    
  16 C16           -1.1711    -6.1681    -0.0210 C.ar    
  17 C17           -4.7709    -3.9661     0.6698 C.3     
  18 F18           -4.4780    -2.5999     0.7410 F       
  19 F19           -5.6650    -4.1971    -0.3810 F       
  20 F20           -5.3487    -4.3825     1.8739 F       
  21 Cl21          -5.0555    -6.9559     0.4651 Cl      
  22 H22            0.4306    -0.5626     2.7088 H       
  23 H23            0.4071    -2.9861     2.3068 H       
  24 H24           -0.2654    -2.3002    -1.8625 H       
  25 H25           -0.2554     0.1253    -1.4722 H       
  26 H26           -0.0496     3.1948     0.0564 H       
  27 H27           -2.2656    -2.9966     0.3981 H       
  28 H28           -2.4102    -7.9087     0.0163 H       
  29 H29           -0.2628    -6.7247    -0.1988 H       
@<TRIPOS>BOND
   1    1    2 1
   2    1    8 2
   3    1    9 1
   4    2    3 ar
   5    2    7 ar
   6    3    4 ar
   7    3   22 1
   8    4    5 ar
   9    4   23 1
  10    5    6 ar
  11    5   10 1
  12    6    7 ar
  13    6   24 1
  14    7   25 1
  15    9   26 1
  16   10   11 1
  17   11   12 ar
  18   11   16 ar
  19   12   13 ar
  20   12   27 1
  21   13   14 ar
  22   13   17 1
  23   14   15 ar
  24   14   21 1
  25   15   16 ar
  26   15   28 1
  27   16   29 1
  28   17   18 1
  29   17   19 1
  30   17   20 1

#	End of record

