#	Name: ASD03330727
#	Creating user name:	WinNT
#	Creation time:	15. 06. 2019 20:37

#	Modifying user name:	WinNT
#	Modification time:	15. 06. 2019 20:37

#	Program:	/corina/corina34_cracker 3.40 0067  02.08.2006

@<TRIPOS>MOLECULE
ASD03330727
  71   73    0    0    0
SMALL
NO_CHARGES


@<TRIPOS>ATOM
   1 C1            -0.0165     1.3543     0.0391 C.2     
   2 N2             0.0051    -0.0057     0.0506 N.pl3   
   3 C3             1.2707     1.7867    -0.0302 C.2     
   4 N4             2.0651     0.6966    -0.1023 N.2     
   5 C5             1.3181    -0.3799    -0.0685 C.2     
   6 C6             1.8119    -1.7719    -0.1458 C.ar    
   7 C7             1.7183     3.1907    -0.0272 C.2     
   8 O8             0.9015     4.0892     0.0421 O.2     
   9 C9             3.4776     4.8749    -0.0983 C.3     
  10 N10            3.0327     3.4791    -0.1013 N.am    
  11 C11            4.8384     4.9779    -0.7901 C.3     
  12 C12            4.7155     4.4849    -2.2333 C.3     
  13 C13            5.3031     6.4356    -0.7870 C.3     
  14 C14            3.5987     5.3605     1.3232 C.2     
  15 O15            3.9941     6.6191     1.5710 O.3     
  16 O16            3.3399     4.6170     2.2397 O.2     
  17 C17           -1.1237    -0.9321     0.1945 C.3     
  18 C18           -2.4056    -0.3152    -0.3656 C.3     
  19 C19           -3.0744     0.5624     0.7035 C.3     
  20 N20           -2.1724     1.6416     1.0729 N.am    
  21 C21           -1.2670     2.1918     0.0563 C.3     
  22 C22            5.8575     4.1162    -0.0418 C.3     
  23 C23           -2.1679     2.1295     2.3292 C.2     
  24 C24            1.3496    -2.7307     0.7563 C.ar    
  25 C25            2.7391    -2.1343    -1.1262 C.ar    
  26 C26            3.1955    -3.4377    -1.1922 C.ar    
  27 C27            2.7359    -4.3800    -0.2908 C.ar    
  28 C28            1.8135    -4.0275     0.6788 C.ar    
  29 O29           -2.9214     1.6676     3.1631 O.2     
  30 O30           -1.3285     3.1288     2.6602 O.3     
  31 C31           -1.3782     3.6046     4.0312 C.3     
  32 C32           -1.0433     2.4542     4.9827 C.3     
  33 C33           -0.3612     4.7325     4.2168 C.3     
  34 C34           -2.7825     4.1284     4.3387 C.3     
  35 F35            3.1880    -1.2138    -2.0073 F       
  36 C36            3.2370    -5.7991    -0.3685 C.3     
  37 H37            2.7517     5.4888    -0.6314 H       
  38 H38            3.6841     2.7625    -0.1565 H       
  39 H39            3.9895     5.0988    -2.7663 H       
  40 H40            5.6849     4.5582    -2.7261 H       
  41 H41            4.3844     3.4464    -2.2355 H       
  42 H42            5.3907     6.7869     0.2411 H       
  43 H43            6.2725     6.5090    -1.2798 H       
  44 H44            4.5771     7.0495    -1.3201 H       
  45 H45            4.0568     6.8849     2.4987 H       
  46 H46           -0.9032    -1.8531    -0.3452 H       
  47 H47           -1.2674    -1.1614     1.2504 H       
  48 H48           -2.1635     0.2953    -1.2355 H       
  49 H49           -3.0904    -1.1098    -0.6618 H       
  50 H50           -3.9984     0.9810     0.3046 H       
  51 H51           -3.2980    -0.0419     1.5826 H       
  52 H52           -1.0160     3.2226     0.3065 H       
  53 H53           -1.7470     2.1564    -0.9217 H       
  54 H54            5.5264     3.0777    -0.0440 H       
  55 H55            6.8269     4.1895    -0.5347 H       
  56 H56            5.9450     4.4674     0.9863 H       
  57 H57            0.6301    -2.4580     1.5141 H       
  58 H58            3.9119    -3.7204    -1.9493 H       
  59 H59            1.4589    -4.7689     1.3796 H       
  60 H60           -0.0429     2.0810     4.7636 H       
  61 H61           -1.0806     2.8114     6.0118 H       
  62 H62           -1.7678     1.6507     4.8505 H       
  63 H63           -0.5998     5.5520     3.5389 H       
  64 H64           -0.3985     5.0896     5.2459 H       
  65 H65            0.6392     4.3593     3.9977 H       
  66 H66           -3.5070     3.3249     4.2064 H       
  67 H67           -2.8198     4.4856     5.3678 H       
  68 H68           -3.0211     4.9480     3.6608 H       
  69 H69            4.1268    -5.9048     0.2521 H       
  70 H70            2.4624    -6.4780    -0.0117 H       
  71 H71            3.4842    -6.0411    -1.4022 H       
@<TRIPOS>BOND
   1    1    2 1
   2    1    3 2
   3    1   21 1
   4    2   17 1
   5    2    5 1
   6    3    4 1
   7    3    7 1
   8    4    5 2
   9    5    6 1
  10    6   25 ar
  11    6   24 ar
  12    7    8 2
  13    7   10 am
  14    9   10 1
  15    9   11 1
  16    9   14 1
  17    9   37 1
  18   10   38 1
  19   11   12 1
  20   11   13 1
  21   11   22 1
  22   12   39 1
  23   12   40 1
  24   12   41 1
  25   13   42 1
  26   13   43 1
  27   13   44 1
  28   14   15 1
  29   14   16 2
  30   15   45 1
  31   17   18 1
  32   17   46 1
  33   17   47 1
  34   18   19 1
  35   18   48 1
  36   18   49 1
  37   19   20 1
  38   19   50 1
  39   19   51 1
  40   20   21 1
  41   20   23 am
  42   21   52 1
  43   21   53 1
  44   22   54 1
  45   22   55 1
  46   22   56 1
  47   23   29 2
  48   23   30 1
  49   24   28 ar
  50   24   57 1
  51   25   26 ar
  52   25   35 1
  53   26   27 ar
  54   26   58 1
  55   27   28 ar
  56   27   36 1
  57   28   59 1
  58   30   31 1
  59   31   32 1
  60   31   33 1
  61   31   34 1
  62   32   60 1
  63   32   61 1
  64   32   62 1
  65   33   63 1
  66   33   64 1
  67   33   65 1
  68   34   66 1
  69   34   67 1
  70   34   68 1
  71   36   69 1
  72   36   70 1
  73   36   71 1

#	End of record

