#	Name: ASD02310002
#	Creating user name:	WinNT
#	Creation time:	15. 06. 2019 20:20

#	Modifying user name:	WinNT
#	Modification time:	15. 06. 2019 20:20

#	Program:	/corina/corina34_cracker 3.40 0067  02.08.2006

@<TRIPOS>MOLECULE
ASD02310002
  43   44    0    0    0
SMALL
NO_CHARGES


@<TRIPOS>ATOM
   1 C1            -0.0169     1.3970     0.0097 C.ar    
   2 C2             0.0021    -0.0041     0.0020 C.ar    
   3 C3             1.2085    -0.6739    -0.0131 C.ar    
   4 C4             2.4053     0.0433    -0.0207 C.ar    
   5 C5             2.3879     1.4318    -0.0126 C.ar    
   6 C6             1.1887     2.1092     0.0020 C.ar    
   7 O7             1.2309    -2.0337    -0.0202 O.3     
   8 C8            -0.0315    -2.7033    -0.0112 C.3     
   9 O9             3.5909    -0.6186    -0.0355 O.3     
  10 C10           -1.2966     2.1158     0.0197 C.2     
  11 C11           -1.3125     3.4713     0.0271 C.2     
  12 C12           -2.5399     4.1608     0.0367 C.2     
  13 C13           -2.5577     5.6677     0.0450 C.3     
  14 C14           -3.9843     6.1532     0.0544 C.2     
  15 C15           -4.2578     7.5342     0.0632 C.2     
  16 C16           -5.5410     7.9710     0.0717 C.2     
  17 C17           -5.8262     9.4108     0.0809 C.ar    
  18 C18           -5.0472    11.6846     0.0832 C.ar    
  19 C19           -4.7741    10.3359     0.0750 C.ar    
  20 C20           -7.1514     9.8650     0.0896 C.ar    
  21 C21           -7.4130    11.2159     0.0977 C.ar    
  22 C22           -6.3647    12.1298     0.0972 C.ar    
  23 O23           -6.6283    13.4610     0.1053 O.3     
  24 O24           -4.8982     5.3531     0.0544 O.2     
  25 O25           -3.5847     3.5411     0.0383 O.2     
  26 H26           -0.9249    -0.5582     0.0083 H       
  27 H27            3.3172     1.9821    -0.0182 H       
  28 H28            1.1783     3.1891     0.0076 H       
  29 H29            0.1291    -3.7814    -0.0182 H       
  30 H30           -0.5845    -2.4242     0.8856 H       
  31 H31           -0.6019    -2.4152    -0.8943 H       
  32 H32            3.9258    -0.8056    -0.9232 H       
  33 H33           -2.2255     1.5648     0.0211 H       
  34 H34           -0.3837     4.0223     0.0257 H       
  35 H35           -2.0439     6.0322     0.9345 H       
  36 H36           -2.0524     6.0419    -0.8454 H       
  37 H37           -3.4452     8.2457     0.0632 H       
  38 H38           -6.3536     7.2596     0.0717 H       
  39 H39           -4.2370    12.3986     0.0791 H       
  40 H40           -3.7507     9.9912     0.0645 H       
  41 H41           -7.9662     9.1562     0.0897 H       
  42 H42           -8.4342    11.5672     0.1041 H       
  43 H43           -6.7129    13.8505    -0.7758 H       
@<TRIPOS>BOND
   1    1    2 ar
   2    1    6 ar
   3    1   10 1
   4    2    3 ar
   5    2   26 1
   6    3    4 ar
   7    3    7 1
   8    4    5 ar
   9    4    9 1
  10    5    6 ar
  11    5   27 1
  12    6   28 1
  13    7    8 1
  14    8   29 1
  15    8   30 1
  16    8   31 1
  17    9   32 1
  18   10   11 2
  19   10   33 1
  20   11   12 1
  21   11   34 1
  22   12   13 1
  23   12   25 2
  24   13   14 1
  25   13   35 1
  26   13   36 1
  27   14   15 1
  28   14   24 2
  29   15   16 2
  30   15   37 1
  31   16   17 1
  32   16   38 1
  33   17   20 ar
  34   17   19 ar
  35   18   19 ar
  36   18   22 ar
  37   18   39 1
  38   19   40 1
  39   20   21 ar
  40   20   41 1
  41   21   22 ar
  42   21   42 1
  43   22   23 1
  44   23   43 1

#	End of record

