#	Name: ASD01811165
#	Creating user name:	WinNT
#	Creation time:	15. 06. 2019 19:26

#	Modifying user name:	WinNT
#	Modification time:	15. 06. 2019 19:26

#	Program:	/corina/corina34_cracker 3.40 0067  02.08.2006

@<TRIPOS>MOLECULE
ASD01811165
  69   73    0    0    0
SMALL
NO_CHARGES


@<TRIPOS>ATOM
   1 C1            -7.2421     2.0670    -3.8743 C.1     
   2 C2            -6.2740     2.8748    -3.1953 C.ar    
   3 C3            -5.1143     2.2938    -2.6784 C.ar    
   4 C4            -4.1860     3.0779    -2.0254 C.ar    
   5 C5            -4.4022     4.4369    -1.8817 C.ar    
   6 C6            -5.5494     5.0191    -2.3911 C.ar    
   7 C7            -6.4828     4.2480    -3.0522 C.ar    
   8 N8            -8.0100     1.4262    -4.4129 N.1     
   9 N9            -2.3781     7.7283    -0.1524 N.am    
  10 C10           -1.8018     7.2062    -1.3990 C.3     
  11 C11           -2.8618     6.3660    -2.1183 C.3     
  12 C12           -3.3837     5.2869    -1.1667 C.3     
  13 C13           -4.0355     5.9488     0.0495 C.3     
  14 C14           -2.9888     6.7842     0.7933 C.3     
  15 C15           -2.3423     9.0476     0.1209 C.2     
  16 C16           -3.0040     9.5691     1.3360 C.ar    
  17 C17           -3.9618    10.5806     1.2322 C.ar    
  18 C18           -4.5805    11.0685     2.3657 C.ar    
  19 C19           -4.2579    10.5607     3.6089 C.ar    
  20 C20           -3.3026     9.5492     3.7269 C.ar    
  21 C21           -2.6778     9.0488     2.5865 C.ar    
  22 O22           -1.7660     9.8087    -0.6315 O.2     
  23 C23           -4.3201    11.1407    -0.1202 C.3     
  24 C24           -5.2989    10.1959    -0.8205 C.3     
  25 N25           -2.9848     8.6531     7.1558 N.2     
  26 N26           -3.5358     9.3099     6.1983 N.2     
  27 C27           -2.9580     9.0070     5.0590 C.2     
  28 N28           -1.9730     8.0907     5.3383 N.pl3   
  29 C29           -2.0243     7.8931     6.6862 C.2     
  30 O30           -1.2303     7.0652     7.4072 O.3     
  31 C31           -1.4590     7.0118     8.8168 C.3     
  32 C32           -0.4743     6.0309     9.4564 C.3     
  33 C33           -4.9381    11.0999     4.8408 C.3     
  34 C34           -4.8059    12.6236     5.0005 C.3     
  35 C35           -6.2693    12.6220     5.4731 C.3     
  36 C36           -6.4480    11.3287     4.6605 C.3     
  37 H37           -4.9447     1.2330    -2.7892 H       
  38 H38           -3.2885     2.6298    -1.6251 H       
  39 H39           -5.7120     6.0805    -2.2751 H       
  40 H40           -7.3756     4.7045    -3.4535 H       
  41 H41           -1.4986     8.0362    -2.0372 H       
  42 H42           -0.9367     6.5842    -1.1692 H       
  43 H43           -3.6866     7.0080    -2.4276 H       
  44 H44           -2.4186     5.8943    -2.9953 H       
  45 H45           -2.5543     4.6606    -0.8381 H       
  46 H46           -4.8492     6.5947    -0.2803 H       
  47 H47           -4.4276     5.1801     0.7154 H       
  48 H48           -2.2205     6.1279     1.2019 H       
  49 H49           -3.4688     7.3358     1.6017 H       
  50 H50           -5.3198    11.8511     2.2800 H       
  51 H51           -1.9412     8.2637     2.6720 H       
  52 H52           -4.7848    12.1190     0.0032 H       
  53 H53           -3.4174    11.2407    -0.7229 H       
  54 H54           -4.8342     9.2177    -0.9439 H       
  55 H55           -6.2016    10.0960    -0.2178 H       
  56 H56           -5.5581    10.6011    -1.7986 H       
  57 H57           -1.3668     7.6716     4.7075 H       
  58 H58           -1.3148     8.0032     9.2461 H       
  59 H59           -2.4792     6.6783     9.0070 H       
  60 H60           -0.6487     5.9901    10.5315 H       
  61 H61           -0.6185     5.0394     9.0270 H       
  62 H62            0.5459     6.3643     9.2662 H       
  63 H63           -4.6842    10.5427     5.7426 H       
  64 H64           -4.0977    12.9219     5.7735 H       
  65 H65           -4.6520    13.1497     4.0583 H       
  66 H66           -6.3807    12.4811     6.5482 H       
  67 H67           -6.8520    13.4609     5.0925 H       
  68 H68           -6.7430    11.5007     3.6254 H       
  69 H69           -7.0655    10.5816     5.1591 H       
@<TRIPOS>BOND
   1    1    2 1
   2    1    8 3
   3    2    3 ar
   4    2    7 ar
   5    3    4 ar
   6    3   37 1
   7    4    5 ar
   8    4   38 1
   9    5    6 ar
  10    5   12 1
  11    6    7 ar
  12    6   39 1
  13    7   40 1
  14    9   10 1
  15    9   14 1
  16    9   15 am
  17   10   11 1
  18   10   41 1
  19   10   42 1
  20   11   12 1
  21   11   43 1
  22   11   44 1
  23   12   13 1
  24   12   45 1
  25   13   14 1
  26   13   46 1
  27   13   47 1
  28   14   48 1
  29   14   49 1
  30   15   16 1
  31   15   22 2
  32   16   17 ar
  33   16   21 ar
  34   17   18 ar
  35   17   23 1
  36   18   19 ar
  37   18   50 1
  38   19   20 ar
  39   19   33 1
  40   20   21 ar
  41   20   27 1
  42   21   51 1
  43   23   24 1
  44   23   52 1
  45   23   53 1
  46   24   54 1
  47   24   55 1
  48   24   56 1
  49   25   26 1
  50   25   29 2
  51   26   27 2
  52   27   28 1
  53   28   29 1
  54   28   57 1
  55   29   30 1
  56   30   31 1
  57   31   32 1
  58   31   58 1
  59   31   59 1
  60   32   60 1
  61   32   61 1
  62   32   62 1
  63   33   34 1
  64   33   36 1
  65   33   63 1
  66   34   35 1
  67   34   64 1
  68   34   65 1
  69   35   36 1
  70   35   66 1
  71   35   67 1
  72   36   68 1
  73   36   69 1

#	End of record

