#	Name: ASD05430283
#	Creating user name:	WinNT
#	Creation time:	15. 06. 2019 21:00

#	Modifying user name:	WinNT
#	Modification time:	15. 06. 2019 21:00

#	Program:	/corina/corina34_cracker 3.40 0067  02.08.2006

@<TRIPOS>MOLECULE
ASD05430283
  74   79    0    0    0
SMALL
NO_CHARGES


@<TRIPOS>ATOM
   1 C1             0.0133     1.5204    -0.0074 C.ar    
   2 C2            -0.0246     0.3408    -0.7503 C.ar    
   3 C3             1.1410    -0.1728    -1.3043 C.ar    
   4 C4             2.3403     0.4806    -1.1221 C.ar    
   5 C5             2.3860     1.6641    -0.3783 C.ar    
   6 C6             1.2127     2.1813     0.1790 C.ar    
   7 C7             4.8340     0.1413    -0.0578 C.3     
   8 C8             4.8126     1.6614    -0.1118 C.2     
   9 C9             3.6665     2.3634    -0.1822 C.2     
  10 C10            5.8857    -0.2870     0.9658 C.3     
  11 C11            7.3007     0.1854     0.6322 C.3     
  12 N12            7.2712     1.6200     0.3560 N.pl3   
  13 C13            6.1405     2.3144    -0.0809 C.2     
  14 N14            6.4557     3.5142    -0.4387 N.2     
  15 C15            9.6303     2.0798    -0.0858 C.ar    
  16 C16           10.3688     2.8504    -0.9647 C.ar    
  17 C17           10.0778     0.8237     0.2766 C.ar    
  18 C18           11.2665     0.3368    -0.2408 C.ar    
  19 C19           12.0050     1.1093    -1.1207 C.ar    
  20 C20           11.5552     2.3652    -1.4822 C.ar    
  21 N21           -1.2416    -0.3284    -0.9379 N.pl3   
  22 C22           -2.1356    -0.6642     0.0280 C.2     
  23 C23           -1.7574    -0.7623    -2.1317 C.2     
  24 C24           -2.9380    -1.3487    -1.8563 C.2     
  25 N25           -3.1438    -1.2748    -0.5330 N.2     
  26 C26           -3.8689    -1.9760    -2.8617 C.3     
  27 C27            8.3400     2.6124     0.4820 C.3     
  28 O28            7.8556     3.7200    -0.3060 O.3     
  29 C29            8.5247     3.0247     1.9438 C.3     
  30 C30            5.4742    -0.0062     2.4185 C.3     
  31 O31            5.9880    -1.3254     2.6960 O.3     
  32 C32            5.8086    -1.7750     1.3369 C.3     
  33 Si33          12.5512     3.4077    -2.6699 Si      
  34 C34           12.0065     3.0518    -4.4156 C.3     
  35 C35           12.2805     5.2114    -2.2905 C.3     
  36 C36           14.3598     2.9994    -2.4883 C.3     
  37 C37           -1.0178     3.2348     1.2778 C.3     
  38 O38           -1.1304     2.0232     0.5286 O.3     
  39 F39           11.7052    -0.8910     0.1131 F       
  40 H40            1.1072    -1.0866    -1.8789 H       
  41 H41            3.2452     0.0786    -1.5534 H       
  42 H42            1.2435     3.0949     0.7541 H       
  43 H43            3.8546    -0.2296     0.2444 H       
  44 H44            5.0920    -0.2577    -1.0388 H       
  45 H45            3.6862     3.4396    -0.0948 H       
  46 H46            7.9592    -0.0095     1.4787 H       
  47 H47            7.6656    -0.3476    -0.2457 H       
  48 H48           10.0183     3.8320    -1.2474 H       
  49 H49            9.5010     0.2221     0.9634 H       
  50 H50           12.9324     0.7307    -1.5246 H       
  51 H51           -2.0298    -0.4607     1.0833 H       
  52 H52           -1.3042    -0.6540    -3.1060 H       
  53 H53           -3.6168    -3.0295    -2.9825 H       
  54 H54           -4.8969    -1.8864    -2.5104 H       
  55 H55           -3.7665    -1.4658    -3.8195 H       
  56 H56            8.7850     2.1489     2.5382 H       
  57 H57            9.3236     3.7628     2.0150 H       
  58 H58            7.5969     3.4562     2.3196 H       
  59 H59            6.0407     0.7964     2.8905 H       
  60 H60            4.3977     0.0874     2.5621 H       
  61 H61            4.8354    -2.2275     1.1465 H       
  62 H62            6.6391    -2.3687     0.9550 H       
  63 H63           10.9483     3.2906    -4.5219 H       
  64 H64           12.5877     3.6600    -5.1087 H       
  65 H65           12.1649     1.9964    -4.6376 H       
  66 H66           12.5992     5.4196    -1.2691 H       
  67 H67           12.8617     5.8197    -2.9836 H       
  68 H68           11.2223     5.4503    -2.3968 H       
  69 H69           14.5181     1.9441    -2.7103 H       
  70 H70           14.9409     3.6077    -3.1813 H       
  71 H71           14.6784     3.2077    -1.4669 H       
  72 H72           -0.3430     3.0801     2.1197 H       
  73 H73           -0.6236     4.0232     0.6365 H       
  74 H74           -2.0007     3.5255     1.6485 H       
@<TRIPOS>BOND
   1    1    2 ar
   2    1    6 ar
   3    1   38 1
   4    2    3 ar
   5    2   21 1
   6    3    4 ar
   7    3   40 1
   8    4    5 ar
   9    4   41 1
  10    5    6 ar
  11    5    9 1
  12    6   42 1
  13    7    8 1
  14    7   10 1
  15    7   43 1
  16    7   44 1
  17    8    9 2
  18    8   13 1
  19    9   45 1
  20   10   11 1
  21   10   30 1
  22   10   32 1
  23   11   12 1
  24   11   46 1
  25   11   47 1
  26   12   13 1
  27   12   27 1
  28   13   14 2
  29   14   28 1
  30   15   16 ar
  31   15   17 ar
  32   15   27 1
  33   16   20 ar
  34   16   48 1
  35   17   18 ar
  36   17   49 1
  37   18   19 ar
  38   18   39 1
  39   19   20 ar
  40   19   50 1
  41   20   33 1
  42   21   22 1
  43   21   23 1
  44   22   25 2
  45   22   51 1
  46   23   24 2
  47   23   52 1
  48   24   25 1
  49   24   26 1
  50   26   53 1
  51   26   54 1
  52   26   55 1
  53   27   28 1
  54   27   29 1
  55   29   56 1
  56   29   57 1
  57   29   58 1
  58   30   31 1
  59   30   59 1
  60   30   60 1
  61   31   32 1
  62   32   61 1
  63   32   62 1
  64   33   34 1
  65   33   35 1
  66   33   36 1
  67   34   63 1
  68   34   64 1
  69   34   65 1
  70   35   66 1
  71   35   67 1
  72   35   68 1
  73   36   69 1
  74   36   70 1
  75   36   71 1
  76   37   38 1
  77   37   72 1
  78   37   73 1
  79   37   74 1

#	End of record

