#	Name: ASD09740660
#	Creating user name:	WinNT
#	Creation time:	15. 06. 2019 21:23

#	Modifying user name:	WinNT
#	Modification time:	15. 06. 2019 21:23

#	Program:	/corina/corina34_cracker 3.40 0067  02.08.2006

@<TRIPOS>MOLECULE
ASD09740660
  68   71    0    0    0
SMALL
NO_CHARGES


@<TRIPOS>ATOM
   1 C1            -2.8005    -0.8223     0.0053 C.1     
   2 C2            -2.4769     0.5465    -0.2639 C.ar    
   3 C3            -1.1361     0.9579    -0.3054 C.ar    
   4 C4            -0.8253     2.2848    -0.5659 C.ar    
   5 C5            -1.8296     3.2031    -0.7848 C.ar    
   6 C6            -3.1691     2.8043    -0.7464 C.ar    
   7 C7            -3.4924     1.4737    -0.4914 C.ar    
   8 N8            -3.0573    -1.9081     0.2188 N.1     
   9 O9            -0.1435     0.0585    -0.0903 O.3     
  10 C10            1.1902     0.5673    -0.0254 C.3     
  11 C11            2.0479    -0.3588     0.8392 C.3     
  12 C12            1.7784     0.6375    -1.4361 C.3     
  13 S13           -3.9945     5.5038    -1.3220 S.3     
  14 C14           -4.2414     3.7932    -0.9818 C.2     
  15 N15           -5.5196     3.5376    -0.9705 N.2     
  16 C16           -6.3323     4.5387    -1.2002 C.2     
  17 C17           -5.7392     5.7317    -1.4240 C.2     
  18 C18           -6.2242    10.4341    -0.3451 C.3     
  19 C19           -4.8844     9.8931     0.1976 C.3     
  20 C20           -5.0903     8.3653     0.1217 C.3     
  21 C21           -6.1032     8.1571    -0.9836 C.ar    
  22 C22           -6.4328     7.0061    -1.7059 C.ar    
  23 C23           -7.4165     7.0622    -2.6930 C.ar    
  24 C24           -8.0599     8.2549    -2.9517 C.ar    
  25 C25           -7.7305     9.3899    -2.2349 C.ar    
  26 C26           -6.7538     9.3434    -1.2517 C.ar    
  27 O27           -7.1353    10.6710     0.7301 O.3     
  28 Si28          -7.1991    12.2270     1.2149 Si      
  29 C29           -5.4860    12.8106     1.6567 C.3     
  30 C30           -7.8774    13.2799    -0.1643 C.3     
  31 C31           -8.3070    12.3679     2.7060 C.3     
  32 C32           -7.7500    11.5032     3.8387 C.3     
  33 C33           -8.3669    13.8275     3.1608 C.3     
  34 C34           -9.7140    11.8886     2.3432 C.3     
  35 H35            0.2074     2.5994    -0.5970 H       
  36 H36           -1.5809     4.2345    -0.9864 H       
  37 H37           -4.5263     1.1626    -0.4653 H       
  38 H38            1.1776     1.5652     0.4130 H       
  39 H39            2.0606    -1.3567     0.4008 H       
  40 H40            3.0653     0.0293     0.8887 H       
  41 H41            1.6289    -0.4088     1.8442 H       
  42 H42            1.7911    -0.3604    -1.8745 H       
  43 H43            1.1674     1.2972    -2.0521 H       
  44 H44            2.7958     1.0256    -1.3867 H       
  45 H45           -7.4055     4.4184    -1.2102 H       
  46 H46           -6.0603    11.3507    -0.9118 H       
  47 H47           -4.0550    10.2045    -0.4374 H       
  48 H48           -4.7263    10.2122     1.2278 H       
  49 H49           -4.1521     7.8690    -0.1266 H       
  50 H50           -5.4797     7.9886     1.0675 H       
  51 H51           -7.6735     6.1752    -3.2530 H       
  52 H52           -8.8219     8.3019    -3.7156 H       
  53 H53           -8.2376    10.3206    -2.4426 H       
  54 H54           -4.8378    12.7281     0.7842 H       
  55 H55           -5.5286    13.8504     1.9807 H       
  56 H56           -5.0891    12.1946     2.4636 H       
  57 H57           -8.9089    12.9920    -0.3676 H       
  58 H58           -7.8441    14.3290     0.1294 H       
  59 H59           -7.2760    13.1345    -1.0618 H       
  60 H60           -6.7476    11.8446     4.0972 H       
  61 H61           -8.3982    11.5856     4.7112 H       
  62 H62           -7.7073    10.4633     3.5147 H       
  63 H63           -8.7637    14.4435     2.3539 H       
  64 H64           -9.0151    13.9099     4.0333 H       
  65 H65           -7.3645    14.1689     3.4193 H       
  66 H66           -9.6713    10.8487     2.0192 H       
  67 H67          -10.3621    11.9710     3.2156 H       
  68 H68          -10.1108    12.5046     1.5362 H       
@<TRIPOS>BOND
   1    1    2 1
   2    1    8 3
   3    2    3 ar
   4    2    7 ar
   5    3    4 ar
   6    3    9 1
   7    4    5 ar
   8    4   35 1
   9    5    6 ar
  10    5   36 1
  11    6    7 ar
  12    6   14 1
  13    7   37 1
  14    9   10 1
  15   10   11 1
  16   10   12 1
  17   10   38 1
  18   11   39 1
  19   11   40 1
  20   11   41 1
  21   12   42 1
  22   12   43 1
  23   12   44 1
  24   13   14 1
  25   13   17 1
  26   14   15 2
  27   15   16 1
  28   16   17 2
  29   16   45 1
  30   17   22 1
  31   18   19 1
  32   18   26 1
  33   18   27 1
  34   18   46 1
  35   19   20 1
  36   19   47 1
  37   19   48 1
  38   20   21 1
  39   20   49 1
  40   20   50 1
  41   21   22 ar
  42   21   26 ar
  43   22   23 ar
  44   23   24 ar
  45   23   51 1
  46   24   25 ar
  47   24   52 1
  48   25   26 ar
  49   25   53 1
  50   27   28 1
  51   28   29 1
  52   28   30 1
  53   28   31 1
  54   29   54 1
  55   29   55 1
  56   29   56 1
  57   30   57 1
  58   30   58 1
  59   30   59 1
  60   31   32 1
  61   31   34 1
  62   31   33 1
  63   32   60 1
  64   32   61 1
  65   32   62 1
  66   33   63 1
  67   33   64 1
  68   33   65 1
  69   34   66 1
  70   34   67 1
  71   34   68 1

#	End of record

