#	Name: ASD01912374
#	Creating user name:	WinNT
#	Creation time:	15. 06. 2019 19:59

#	Modifying user name:	WinNT
#	Modification time:	15. 06. 2019 19:59

#	Program:	/corina/corina34_cracker 3.40 0067  02.08.2006

@<TRIPOS>MOLECULE
ASD01912374
  51   54    0    0    0
SMALL
NO_CHARGES


@<TRIPOS>ATOM
   1 C1             0.7754     3.1863     4.7107 C.ar    
   2 C2             0.8542     1.9615     5.3489 C.ar    
   3 C3             2.0559     1.2662     5.3456 C.ar    
   4 C4             3.1422     1.8270     4.6987 C.ar    
   5 C5             2.9931     3.0681     4.0739 C.ar    
   6 N6             1.8232     3.7006     4.1011 N.ar    
   7 C7             4.1075     3.6631     3.3995 C.1     
   8 C8             5.0211     4.1509     2.8467 C.1     
   9 C9             6.1355     4.7459     2.1724 C.2     
  10 N10            5.4420     7.6549    -0.4944 N.am    
  11 C11            6.7184     6.9320    -0.5660 C.3     
  12 C12            7.1637     6.5742     0.8576 C.3     
  13 C13            5.9985     5.9289     1.5752 C.2     
  14 C14            4.6741     6.6599     1.5985 C.3     
  15 C15            4.2911     7.0156     0.1563 C.3     
  16 C16            5.3297     8.8930    -1.0150 C.2     
  17 O17            6.3143     9.4626    -1.4482 O.2     
  18 C18            4.0226     9.5531    -1.0594 C.2     
  19 C19            3.8084    10.8889    -0.8672 C.2     
  20 C20            2.4994    11.2772    -0.9565 C.2     
  21 C21            1.6205    10.2681    -1.2230 C.2     
  22 S22            2.4916     8.7483    -1.3758 S.3     
  23 C23            0.1584    10.4289    -1.3664 C.ar    
  24 C24           -0.6452     9.3209    -1.6402 C.ar    
  25 C25           -2.0094     9.4780    -1.7729 C.ar    
  26 C26           -2.5812    10.7304    -1.6355 C.ar    
  27 C27           -1.7903    11.8329    -1.3645 C.ar    
  28 C28           -0.4257    11.6886    -1.2228 C.ar    
  29 C29           -0.5297     3.9397     4.7077 C.3     
  30 H30           -0.0118     1.5497     5.8459 H       
  31 H31            2.1407     0.3086     5.8377 H       
  32 H32            4.0920     1.3133     4.6771 H       
  33 H33            7.0871     4.2356     2.1480 H       
  34 H34            6.5895     6.0198    -1.1487 H       
  35 H35            7.4710     7.5650    -1.0361 H       
  36 H36            8.0007     5.8771     0.8160 H       
  37 H37            7.4648     7.4787     1.3861 H       
  38 H38            3.9083     6.0180     2.0339 H       
  39 H39            4.7685     7.5715     2.1886 H       
  40 H40            3.4458     7.7036     0.1618 H       
  41 H41            4.0229     6.1082    -0.3848 H       
  42 H42            4.6093    11.5834    -0.6606 H       
  43 H43            2.1863    12.3025    -0.8260 H       
  44 H44           -0.2000     8.3429    -1.7484 H       
  45 H45           -2.6323     8.6216    -1.9848 H       
  46 H46           -3.6496    10.8480    -1.7407 H       
  47 H47           -2.2429    12.8078    -1.2592 H       
  48 H48            0.1899    12.5492    -1.0062 H       
  49 H49           -0.5740     4.5932     5.5790 H       
  50 H50           -0.6012     4.5391     3.8001 H       
  51 H51           -1.3579     3.2319     4.7419 H       
@<TRIPOS>BOND
   1    1    2 ar
   2    1    6 ar
   3    1   29 1
   4    2    3 ar
   5    2   30 1
   6    3    4 ar
   7    3   31 1
   8    4    5 ar
   9    4   32 1
  10    5    6 ar
  11    5    7 1
  12    7    8 3
  13    8    9 1
  14    9   13 2
  15    9   33 1
  16   10   11 1
  17   10   15 1
  18   10   16 am
  19   11   12 1
  20   11   34 1
  21   11   35 1
  22   12   13 1
  23   12   36 1
  24   12   37 1
  25   13   14 1
  26   14   15 1
  27   14   38 1
  28   14   39 1
  29   15   40 1
  30   15   41 1
  31   16   17 2
  32   16   18 1
  33   18   19 2
  34   18   22 1
  35   19   20 1
  36   19   42 1
  37   20   21 2
  38   20   43 1
  39   21   22 1
  40   21   23 1
  41   23   24 ar
  42   23   28 ar
  43   24   25 ar
  44   24   44 1
  45   25   26 ar
  46   25   45 1
  47   26   27 ar
  48   26   46 1
  49   27   28 ar
  50   27   47 1
  51   28   48 1
  52   29   49 1
  53   29   50 1
  54   29   51 1

#	End of record

