#	Name: ASD02030659
#	Creating user name:	WinNT
#	Creation time:	15. 06. 2019 20:15

#	Modifying user name:	WinNT
#	Modification time:	15. 06. 2019 20:15

#	Program:	/corina/corina34_cracker 3.40 0067  02.08.2006

@<TRIPOS>MOLECULE
ASD02030659
  43   45    0    0    0
SMALL
NO_CHARGES


@<TRIPOS>ATOM
   1 C1             0.1169     1.3451     0.0367 C.2     
   2 N2             0.0694    -0.0039     0.0151 N.am    
   3 N3             2.4102    -0.1190     0.0350 N.2     
   4 C4             2.5077     1.2019     0.0558 C.2     
   5 C5             1.3672     1.9790     0.0578 C.2     
   6 C6             1.2280    -0.7265     0.0144 C.2     
   7 O7            -0.9119     2.0023     0.0329 O.2     
   8 C8             3.8649     1.8564     0.0788 C.3     
   9 N9             4.3437     1.9395     1.4608 N.pl3   
  10 C10            4.6989     2.7117     3.4854 C.2     
  11 N11            4.1166     2.9984     2.3494 N.2     
  12 C12            5.0766     1.0067     2.1048 C.2     
  13 C13            5.3122     1.4610     3.3590 C.2     
  14 C14            4.7053     3.5783     4.7183 C.3     
  15 Cl15           5.6193    -0.5043     1.4444 Cl      
  16 F16            3.8927     4.6971     4.5061 F       
  17 F17            4.2162     2.8461     5.8054 F       
  18 F18            6.0130     3.9960     4.9878 F       
  19 C19           -1.1468    -0.6413    -0.0056 C.2     
  20 C20           -1.2139    -2.0032    -0.0277 C.2     
  21 C21           -0.0363    -2.7641    -0.0293 C.2     
  22 C22            1.1719    -2.1376    -0.0073 C.2     
  23 C23           -2.5547    -2.6908    -0.0498 C.3     
  24 C24           -2.3909     0.1537    -0.0036 C.2     
  25 O25           -2.8585     0.5535    -1.0521 O.2     
  26 N26           -3.0082     0.4361     1.1607 N.am    
  27 C27           -4.1794     1.3160     1.1742 C.3     
  28 C28           -4.6843     1.4712     2.6101 C.3     
  29 H29            1.4367     3.0566     0.0751 H       
  30 H30            4.5637     1.2650    -0.5128 H       
  31 H31            3.7917     2.8596    -0.3413 H       
  32 H32            5.8741     0.9483     4.1257 H       
  33 H33           -0.0877    -3.8427    -0.0466 H       
  34 H34            2.0835    -2.7168    -0.0087 H       
  35 H35           -2.9137    -2.7539    -1.0771 H       
  36 H36           -2.4550    -3.6948     0.3625 H       
  37 H37           -3.2652    -2.1209     0.5490 H       
  38 H38           -2.6770     0.0568     1.9898 H       
  39 H39           -3.9041     2.2935     0.7782 H       
  40 H40           -4.9666     0.8827     0.5572 H       
  41 H41           -4.9596     0.4937     3.0061 H       
  42 H42           -3.8971     1.9045     3.2272 H       
  43 H43           -5.5557     2.1259     2.6202 H       
@<TRIPOS>BOND
   1    1    2 am
   2    1    5 1
   3    1    7 2
   4    2    6 1
   5    2   19 1
   6    3    4 1
   7    3    6 2
   8    4    5 2
   9    4    8 1
  10    5   29 1
  11    6   22 1
  12    8    9 1
  13    8   30 1
  14    8   31 1
  15    9   12 1
  16    9   11 1
  17   10   11 2
  18   10   13 1
  19   10   14 1
  20   12   13 2
  21   12   15 1
  22   13   32 1
  23   14   16 1
  24   14   17 1
  25   14   18 1
  26   19   20 2
  27   19   24 1
  28   20   21 1
  29   20   23 1
  30   21   22 2
  31   21   33 1
  32   22   34 1
  33   23   35 1
  34   23   36 1
  35   23   37 1
  36   24   25 2
  37   24   26 am
  38   26   27 1
  39   26   38 1
  40   27   28 1
  41   27   39 1
  42   27   40 1
  43   28   41 1
  44   28   42 1
  45   28   43 1

#	End of record

