#	Name: ASD02690016
#	Creating user name:	WinNT
#	Creation time:	15. 06. 2019 20:26

#	Modifying user name:	WinNT
#	Modification time:	15. 06. 2019 20:26

#	Program:	/corina/corina34_cracker 3.40 0067  02.08.2006

@<TRIPOS>MOLECULE
ASD02690016
  60   62    0    0    0
SMALL
NO_CHARGES


@<TRIPOS>ATOM
   1 C1            -0.0045     1.4600     0.1158 C.3     
   2 N2             0.0021    -0.0041     0.0020 N.3     
   3 C3             0.6062    -0.4355    -1.2650 C.3     
   4 C4             2.0635     0.0285    -1.3208 C.3     
   5 C5             2.1131     1.5544    -1.2037 C.3     
   6 C6             1.4346     1.9805     0.1012 C.3     
   7 C7             5.2199     3.8020    -1.6350 C.ar    
   8 C8             3.8878     3.3733    -1.6392 C.ar    
   9 C9             3.5487     2.0126    -1.1978 C.2     
  10 C10            5.5307     5.0784    -2.0494 C.ar    
  11 C11            4.5267     5.9383    -2.4697 C.ar    
  12 C12            3.2042     5.5195    -2.4768 C.ar    
  13 C13            2.8798     4.2457    -2.0649 C.ar    
  14 C14           -1.3536    -0.5498     0.1516 C.3     
  15 C15           -1.3339    -2.0548    -0.1079 C.3     
  16 C16           -2.6580    -2.6728     0.2574 C.ar    
  17 C17           -3.5747    -2.0388     1.0638 C.ar    
  18 C18           -3.3350    -0.6683     1.6416 C.3     
  19 C19           -1.8509    -0.3125     1.5824 C.3     
  20 C20           -2.9466    -3.9395    -0.2518 C.ar    
  21 C21           -4.1482    -4.5608     0.0526 C.ar    
  22 C22           -5.0624    -3.9205     0.8657 C.ar    
  23 O23           -1.1207    -1.1412     2.4892 O.3     
  24 O24            4.4243     1.2589    -0.8290 O.2     
  25 F25            4.8381     7.1892    -2.8741 F       
  26 C26           -4.7758    -2.6673     1.3679 C.ar    
  27 N27           -2.0198    -4.5852    -1.0734 N.pl3   
  28 H28           -0.5537     1.8870    -0.7233 H       
  29 H29           -0.4859     1.7495     1.0499 H       
  30 H30            0.5683    -1.5226    -1.3338 H       
  31 H31            0.0541     0.0004    -2.0976 H       
  32 H32            2.6194    -0.4181    -0.4965 H       
  33 H33            2.5070    -0.2784    -2.2681 H       
  34 H34            1.5904     2.0018    -2.0490 H       
  35 H35            1.4288     3.0683     0.1699 H       
  36 H36            1.9806     1.5647     0.9480 H       
  37 H37            6.0020     3.1351    -1.3034 H       
  38 H38            6.5584     5.4105    -2.0466 H       
  39 H39            2.4272     6.1938    -2.8053 H       
  40 H40            1.8498     3.9208    -2.0709 H       
  41 H41           -2.0250    -0.0639    -0.5564 H       
  42 H42           -1.1323    -2.2348    -1.1639 H       
  43 H43           -0.5463    -2.5124     0.4908 H       
  44 H44           -3.9037     0.0665     1.0717 H       
  45 H45           -3.6672    -0.6528     2.6796 H       
  46 H46           -1.7136     0.7352     1.8499 H       
  47 H47           -4.3681    -5.5407    -0.3445 H       
  48 H48           -5.9998    -4.3991     1.1077 H       
  49 H49           -1.3967    -1.0531     3.4118 H       
  50 H50           -5.4930    -2.1698     2.0039 H       
  51 H51           -1.1784    -4.1530    -1.2885 H       
  52 H52           -2.2175    -5.4658    -1.4289 H       
  53 C53           12.8578    16.3005     8.4257 C.1     
  54 C54           12.8737    15.1266     8.4193 C.1     
  55 O55           12.8394    17.6553     8.4332 O.3     
  56 O56           12.8921    13.7718     8.4118 O.3     
  57 O57           14.1731    18.2710     8.4237 O.3     
  58 O58           11.5584    13.1561     8.4212 O.3     
  59 H59           14.1600    19.2379     8.4291 H       
  60 H60           11.5715    12.1892     8.4159 H       
@<TRIPOS>BOND
   1    1    2 1
   2    1    6 1
   3    1   28 1
   4    1   29 1
   5    2    3 1
   6    2   14 1
   7    3    4 1
   8    3   30 1
   9    3   31 1
  10    4    5 1
  11    4   32 1
  12    4   33 1
  13    5    6 1
  14    5    9 1
  15    5   34 1
  16    6   35 1
  17    6   36 1
  18    7    8 ar
  19    7   10 ar
  20    7   37 1
  21    8    9 1
  22    8   13 ar
  23    9   24 2
  24   10   11 ar
  25   10   38 1
  26   11   12 ar
  27   11   25 1
  28   12   13 ar
  29   12   39 1
  30   13   40 1
  31   14   15 1
  32   14   19 1
  33   14   41 1
  34   15   16 1
  35   15   42 1
  36   15   43 1
  37   16   17 ar
  38   16   20 ar
  39   17   18 1
  40   17   26 ar
  41   18   19 1
  42   18   44 1
  43   18   45 1
  44   19   23 1
  45   19   46 1
  46   20   21 ar
  47   20   27 1
  48   21   22 ar
  49   21   47 1
  50   22   26 ar
  51   22   48 1
  52   23   49 1
  53   26   50 1
  54   27   51 1
  55   27   52 1
  56   53   54 3
  57   53   55 1
  58   54   56 1
  59   55   57 1
  60   56   58 1
  61   57   59 1
  62   58   60 1

#	End of record

