#	Name: ASD01030041
#	Creating user name:	WinNT
#	Creation time:	15. 06. 2019 18:58

#	Modifying user name:	WinNT
#	Modification time:	15. 06. 2019 18:58

#	Program:	/corina/corina34_cracker 3.40 0067  02.08.2006

@<TRIPOS>MOLECULE
ASD01030041
  33   35    0    0    0
SMALL
NO_CHARGES


@<TRIPOS>ATOM
   1 C1            -0.0169     1.3923     0.0097 C.ar    
   2 C2            -1.2125    -0.7176     0.0090 C.ar    
   3 C3            -2.4182    -0.0272     0.0247 C.ar    
   4 C4            -2.4223     1.3593     0.0212 C.ar    
   5 C5            -1.2368     2.0645     0.0191 C.ar    
   6 C6             0.0021    -0.0041     0.0020 C.ar    
   7 C7             1.2820    -0.7384    -0.0123 C.2     
   8 C8             1.2880    -2.1837     0.2856 C.ar    
   9 C9             0.0759    -2.9006     0.2917 C.ar    
  10 C10           -1.1918    -2.1964     0.0010 C.2     
  11 C11            0.0806    -4.2620     0.5716 C.ar    
  12 C12            2.4852    -2.8481     0.5622 C.ar    
  13 C13            2.4673    -4.2123     0.8404 C.ar    
  14 C14            1.2760    -4.9085     0.8441 C.ar    
  15 O15           -2.2034    -2.8247    -0.2410 O.2     
  16 O16            2.3203    -0.1589    -0.2671 O.2     
  17 O17            3.6584    -2.1683     0.5594 O.3     
  18 C18            1.2745    -6.3848     1.1468 C.3     
  19 O19            1.1458     2.0898     0.0023 O.3     
  20 C20           -3.7332     2.1024     0.0381 C.3     
  21 O21           -4.1283     2.3407     1.3906 O.3     
  22 H22           -3.3517    -0.5703     0.0303 H       
  23 H23           -1.2545     3.1443     0.0253 H       
  24 H24           -0.8466    -4.8158     0.5770 H       
  25 H25            3.3914    -4.7287     1.0544 H       
  26 H26            3.8983    -1.7942     1.4182 H       
  27 H27            1.3912    -6.9460     0.2197 H       
  28 H28            2.0999    -6.6186     1.8193 H       
  29 H29            0.3315    -6.6577     1.6204 H       
  30 H30            1.4746     2.2969    -0.8831 H       
  31 H31           -3.6179     3.0545    -0.4799 H       
  32 H32           -4.4955     1.5060    -0.4633 H       
  33 H33           -4.9657     2.8162     1.4777 H       
@<TRIPOS>BOND
   1    1    6 ar
   2    1   19 1
   3    1    5 ar
   4    2    3 ar
   5    2    6 ar
   6    2   10 1
   7    3    4 ar
   8    3   22 1
   9    4    5 ar
  10    4   20 1
  11    5   23 1
  12    6    7 1
  13    7    8 1
  14    7   16 2
  15    8   12 ar
  16    8    9 ar
  17    9   10 1
  18    9   11 ar
  19   10   15 2
  20   11   14 ar
  21   11   24 1
  22   12   13 ar
  23   12   17 1
  24   13   14 ar
  25   13   25 1
  26   14   18 1
  27   17   26 1
  28   18   27 1
  29   18   28 1
  30   18   29 1
  31   19   30 1
  32   20   21 1
  33   20   31 1
  34   20   32 1
  35   21   33 1

#	End of record

