#	Name: ASD01840509
#	Creating user name:	WinNT
#	Creation time:	15. 06. 2019 19:37

#	Modifying user name:	WinNT
#	Modification time:	15. 06. 2019 19:37

#	Program:	/corina/corina34_cracker 3.40 0067  02.08.2006

@<TRIPOS>MOLECULE
ASD01840509
  30   33    0    0    0
SMALL
NO_CHARGES


@<TRIPOS>ATOM
   1 C1            -0.0184     1.5028     0.0103 C.3     
   2 C2             0.0021    -0.0041     0.0020 C.ar    
   3 N3             0.0056    -0.6576    -1.1456 N.ar    
   4 N4             0.0231    -1.9361    -1.2106 N.ar    
   5 C5             0.0392    -2.7077    -0.1197 C.ar    
   6 S6             0.0644    -4.4572     0.0312 S.3     
   7 C7             0.0720    -4.3981     1.7843 C.ar    
   8 C8             0.0917    -5.4289     2.7319 C.ar    
   9 N9             0.0942    -5.1217     4.0152 N.ar    
  10 C10            0.0785    -3.8625     4.4114 C.ar    
  11 N11            0.0593    -2.8634     3.5626 N.ar    
  12 C12            0.0558    -3.0826     2.2355 C.ar    
  13 C13            0.0369    -2.1086     1.1378 C.ar    
  14 C14            0.0228    -0.6999     1.1935 C.ar    
  15 C15            0.0250     0.0244     2.5150 C.3     
  16 C16            0.1094    -6.8701     2.2919 C.3     
  17 C17            0.3338    -7.9346     3.3678 C.3     
  18 C18           -1.0511    -7.7602     2.7412 C.3     
  19 H19            1.0042     1.8801     0.0026 H       
  20 H20           -0.5455     1.8639    -0.8728 H       
  21 H21           -0.5286     1.8543     0.9071 H       
  22 H22            0.0811    -3.6482     5.4700 H       
  23 H23           -1.0020     0.1847     2.8432 H       
  24 H24            0.5541    -0.5742     3.2565 H       
  25 H25            0.5245     0.9866     2.4012 H       
  26 H26            0.5324    -7.0551     1.3045 H       
  27 H27            0.9047    -8.8200     3.0884 H       
  28 H28            0.4687    -7.5924     4.3938 H       
  29 H29           -1.8274    -7.3034     3.3551 H       
  30 H30           -1.3913    -8.5310     2.0496 H       
@<TRIPOS>BOND
   1    1    2 1
   2    1   19 1
   3    1   20 1
   4    1   21 1
   5    2   14 ar
   6    2    3 ar
   7    3    4 ar
   8    4    5 ar
   9    5   13 ar
  10    5    6 1
  11    6    7 1
  12    7   12 ar
  13    7    8 ar
  14    8    9 ar
  15    8   16 1
  16    9   10 ar
  17   10   11 ar
  18   10   22 1
  19   11   12 ar
  20   12   13 1
  21   13   14 ar
  22   14   15 1
  23   15   23 1
  24   15   24 1
  25   15   25 1
  26   16   18 1
  27   16   17 1
  28   16   26 1
  29   17   18 1
  30   17   27 1
  31   17   28 1
  32   18   29 1
  33   18   30 1

#	End of record

