#	Name: ASD01885491
#	Creating user name:	WinNT
#	Creation time:	15. 06. 2019 19:49

#	Modifying user name:	WinNT
#	Modification time:	15. 06. 2019 19:49

#	Program:	/corina/corina34_cracker 3.40 0067  02.08.2006

@<TRIPOS>MOLECULE
ASD01885491
  64   68    0    0    0
SMALL
NO_CHARGES


@<TRIPOS>ATOM
   1 C1             0.1966     1.2199     0.1461 C.ar    
   2 C2             0.3112    -0.1701     0.1685 C.ar    
   3 N3            -0.7490    -1.0149     0.2355 N.2     
   4 C4            -1.8547    -0.8998    -0.4051 C.2     
   5 C5            -2.1221     0.2654    -1.3213 C.3     
   6 C6            -2.1119     1.5258    -0.4938 C.2     
   7 N7            -1.0178     1.8928     0.1722 N.am    
   8 C8             1.3504     2.0008     0.0886 C.ar    
   9 C9             2.6023     1.4110     0.0487 C.ar    
  10 C10            2.7174     0.0245     0.0654 C.ar    
  11 C11            1.5888    -0.7566     0.1244 C.ar    
  12 C12           -2.8896    -1.9347    -0.2406 C.ar    
  13 O13           -3.1095     2.2132    -0.4353 O.2     
  14 C14           -2.6228    -3.0794     0.5170 C.ar    
  15 C15           -3.5931    -4.0486     0.6712 C.ar    
  16 C16           -4.8319    -3.8948     0.0794 C.ar    
  17 C17           -5.1113    -2.7580    -0.6794 C.ar    
  18 C18           -4.1423    -1.7734    -0.8358 C.ar    
  19 N19            3.7499     2.2078    -0.0088 N.am    
  20 C20           -6.4429    -2.5973    -1.3140 C.ar    
  21 C21            4.8759     1.8140     0.6184 C.2     
  22 N22            6.0119     2.5245     0.4732 N.am    
  23 O23            4.8668     0.8177     1.3154 O.2     
  24 C24            7.2359     2.0964     1.1550 C.3     
  25 C25            8.3531     3.0542     0.8302 C.ar    
  26 C26            8.5698     4.1603     1.6306 C.ar    
  27 C27            9.5946     5.0389     1.3326 C.ar    
  28 C28           10.4029     4.8112     0.2346 C.ar    
  29 C29           10.1867     3.7046    -0.5653 C.ar    
  30 C30            9.1647     2.8237    -0.2648 C.ar    
  31 C31           -7.4320    -3.5732    -1.1642 C.ar    
  32 C32           -8.6565    -3.3840    -1.7713 C.ar    
  33 N33           -8.8985    -2.3009    -2.4845 N.ar    
  34 C34           -7.9927    -1.3563    -2.6506 C.ar    
  35 C35           -6.7440    -1.4631    -2.0731 C.ar    
  36 C36           -8.3283    -0.1414    -3.4767 C.3     
  37 C37           -9.7316    -4.4289    -1.6182 C.3     
  38 H38           -1.3451     0.3196    -2.0838 H       
  39 H39           -3.0960     0.1445    -1.7956 H       
  40 H40           -1.0740     2.6912     0.7202 H       
  41 H41            1.2665     3.0775     0.0746 H       
  42 H42            3.6931    -0.4373     0.0316 H       
  43 H43            1.6836    -1.8324     0.1374 H       
  44 H44           -1.6560    -3.2054     0.9818 H       
  45 H45           -3.3830    -4.9313     1.2568 H       
  46 H46           -5.5865    -4.6573     0.2043 H       
  47 H47           -4.3547    -0.8916    -1.4221 H       
  48 H48            3.7356     3.0440    -0.5002 H       
  49 H49            6.0191     3.3193    -0.0828 H       
  50 H50            7.0674     2.0865     2.2319 H       
  51 H51            7.5069     1.0951     0.8204 H       
  52 H52            7.9383     4.3382     2.4884 H       
  53 H53            9.7635     5.9034     1.9575 H       
  54 H54           11.2031     5.4980     0.0013 H       
  55 H55           10.8180     3.5269    -1.4233 H       
  56 H56            8.9958     1.9592    -0.8896 H       
  57 H57           -7.2406    -4.4625    -0.5821 H       
  58 H58           -6.0074    -0.6858    -2.2129 H       
  59 H59           -8.7530     0.6293    -2.8335 H       
  60 H60           -7.4223     0.2383    -3.9491 H       
  61 H61           -9.0522    -0.4131    -4.2449 H       
  62 H62          -10.3348    -4.2033    -0.7387 H       
  63 H63          -10.3667    -4.4293    -2.5040 H       
  64 H64           -9.2709    -5.4098    -1.5010 H       
@<TRIPOS>BOND
   1    1    2 ar
   2    1    8 ar
   3    1    7 1
   4    2    3 1
   5    2   11 ar
   6    3    4 2
   7    4    5 1
   8    4   12 1
   9    5    6 1
  10    5   38 1
  11    5   39 1
  12    6    7 am
  13    6   13 2
  14    7   40 1
  15    8    9 ar
  16    8   41 1
  17    9   10 ar
  18    9   19 1
  19   10   11 ar
  20   10   42 1
  21   11   43 1
  22   12   14 ar
  23   12   18 ar
  24   14   15 ar
  25   14   44 1
  26   15   16 ar
  27   15   45 1
  28   16   17 ar
  29   16   46 1
  30   17   18 ar
  31   17   20 1
  32   18   47 1
  33   19   21 am
  34   19   48 1
  35   20   31 ar
  36   20   35 ar
  37   21   22 am
  38   21   23 2
  39   22   24 1
  40   22   49 1
  41   24   25 1
  42   24   50 1
  43   24   51 1
  44   25   26 ar
  45   25   30 ar
  46   26   27 ar
  47   26   52 1
  48   27   28 ar
  49   27   53 1
  50   28   29 ar
  51   28   54 1
  52   29   30 ar
  53   29   55 1
  54   30   56 1
  55   31   32 ar
  56   31   57 1
  57   32   33 ar
  58   32   37 1
  59   33   34 ar
  60   34   35 ar
  61   34   36 1
  62   35   58 1
  63   36   59 1
  64   36   60 1
  65   36   61 1
  66   37   62 1
  67   37   63 1
  68   37   64 1

#	End of record

