#	Name: ASD01917694
#	Creating user name:	WinNT
#	Creation time:	15. 06. 2019 20:09

#	Modifying user name:	WinNT
#	Modification time:	15. 06. 2019 20:09

#	Program:	/corina/corina34_cracker 3.40 0067  02.08.2006

@<TRIPOS>MOLECULE
ASD01917694
  44   46    0    0    0
SMALL
NO_CHARGES


@<TRIPOS>ATOM
   1 C1            -0.0189     1.5420     0.0105 C.3     
   2 C2             0.0021    -0.0041     0.0020 C.3     
   3 C3             1.3442    -0.3602     0.6025 C.2     
   4 N4             2.1544     0.7123     0.5924 N.am    
   5 C5             1.4890     1.8776    -0.0021 C.3     
   6 C6             1.9726     2.0879    -1.4383 C.3     
   7 C7             1.7603     3.1276     0.8374 C.3     
   8 C8             3.5253     0.7176     1.1090 C.3     
   9 O9             1.6451    -1.4541     1.0311 O.2     
  10 C10           -1.1170    -0.5514     0.8500 C.ar    
  11 N11           -1.1666    -0.2479     2.1331 N.ar    
  12 C12           -2.1221    -0.6991     2.9183 C.ar    
  13 C13           -3.1277    -1.5257     2.4100 C.ar    
  14 C14           -3.1011    -1.8650     1.0508 C.ar    
  15 C15           -2.0781    -1.3589     0.2688 C.ar    
  16 C16           -4.1638    -2.0224     3.2647 C.1     
  17 C17           -5.0132    -2.4296     3.9653 C.1     
  18 C18           -6.0493    -2.9263     4.8200 C.ar    
  19 C19           -6.0674    -2.5823     6.1743 C.ar    
  20 C20           -7.0684    -3.0645     6.9914 C.ar    
  21 C21           -8.0532    -3.8870     6.4731 C.ar    
  22 C22           -8.0415    -4.2322     5.1331 C.ar    
  23 C23           -7.0503    -3.7526     4.3026 C.ar    
  24 O24           -0.0945    -0.4982    -1.3353 O.3     
  25 H25           -0.5124     1.9304    -0.8804 H       
  26 H26           -0.4952     1.9207     0.9148 H       
  27 H27            1.7647     1.1939    -2.0263 H       
  28 H28            1.4521     2.9397    -1.8759 H       
  29 H29            3.0456     2.2798    -1.4360 H       
  30 H30            2.8317     3.3271     0.8563 H       
  31 H31            1.2397     3.9793     0.3995 H       
  32 H32            1.4026     2.9669     1.8544 H       
  33 H33            3.7724    -0.2719     1.4936 H       
  34 H34            4.2150     0.9780     0.3061 H       
  35 H35            3.6084     1.4505     1.9114 H       
  36 H36           -2.1287    -0.4286     3.9639 H       
  37 H37           -3.8595    -2.5051     0.6246 H       
  38 H38           -2.0279    -1.5954    -0.7838 H       
  39 H39           -5.2992    -1.9408     6.5802 H       
  40 H40           -7.0835    -2.7999     8.0383 H       
  41 H41           -8.8346    -4.2616     7.1177 H       
  42 H42           -8.8131    -4.8749     4.7357 H       
  43 H43           -7.0426    -4.0225     3.2569 H       
  44 H44           -0.0860    -1.4630    -1.3997 H       
@<TRIPOS>BOND
   1    1    2 1
   2    1    5 1
   3    1   25 1
   4    1   26 1
   5    2    3 1
   6    2   10 1
   7    2   24 1
   8    3    4 am
   9    3    9 2
  10    4    5 1
  11    4    8 1
  12    5    6 1
  13    5    7 1
  14    6   27 1
  15    6   28 1
  16    6   29 1
  17    7   30 1
  18    7   31 1
  19    7   32 1
  20    8   33 1
  21    8   34 1
  22    8   35 1
  23   10   11 ar
  24   10   15 ar
  25   11   12 ar
  26   12   13 ar
  27   12   36 1
  28   13   14 ar
  29   13   16 1
  30   14   15 ar
  31   14   37 1
  32   15   38 1
  33   16   17 3
  34   17   18 1
  35   18   19 ar
  36   18   23 ar
  37   19   20 ar
  38   19   39 1
  39   20   21 ar
  40   20   40 1
  41   21   22 ar
  42   21   41 1
  43   22   23 ar
  44   22   42 1
  45   23   43 1
  46   24   44 1

#	End of record

