#	Name: ASD01881406
#	Creating user name:	WinNT
#	Creation time:	15. 06. 2019 19:42

#	Modifying user name:	WinNT
#	Modification time:	15. 06. 2019 19:42

#	Program:	/corina/corina34_cracker 3.40 0067  02.08.2006

@<TRIPOS>MOLECULE
ASD01881406
  56   60    0    0    0
SMALL
NO_CHARGES


@<TRIPOS>ATOM
   1 C1            -0.0187     1.5258     0.0104 C.3     
   2 C2             1.1229    10.0924     4.2824 C.ar    
   3 C3             1.3123     9.0043     3.4573 C.ar    
   4 C4            -0.0136    10.1732     5.0785 C.ar    
   5 C5            -0.9631     9.1562     5.0450 C.ar    
   6 C6            -0.7781     8.0661     4.2214 C.ar    
   7 C7             0.3624     7.9834     3.4215 C.ar    
   8 C8             0.5637     6.8137     2.5353 C.2     
   9 C9             0.5737     6.9718     1.1620 C.2     
  10 C10            0.7536     5.5230     3.0868 C.2     
  11 C11            0.9363     4.4614     2.2797 C.2     
  12 N12            0.9420     4.6075     0.9222 N.pl3   
  13 C13            0.7669     5.8433     0.3475 C.2     
  14 C14            1.0994     3.7357    -0.1122 C.2     
  15 N15            1.0153     4.4222    -1.2223 N.2     
  16 N16            0.8199     5.6675    -0.9640 N.2     
  17 C17            1.3287     2.2506     0.0015 C.3     
  18 Cl18          -2.3811     9.2602     6.0411 Cl      
  19 N19           -0.2028    11.2760     5.9128 N.pl3   
  20 C20            0.7960    12.3471     5.9490 C.3     
  21 C21            0.1305    13.6501     6.3964 C.3     
  22 C22            1.9058    11.9765     6.9349 C.3     
  23 C23            1.3069    11.7903     8.3305 C.3     
  24 C24            0.6414    13.0933     8.7779 C.3     
  25 C25           -0.4684    13.4639     7.7919 C.3     
  26 C26            0.0021    -0.0041     0.0020 C.3     
  27 C27           -0.3944     0.7486     1.2737 C.3     
  28 O28            0.0820    12.9194    10.0813 O.3     
  29 C29            0.3799     8.3342     0.5476 C.3     
  30 F30            1.6279     8.9092     0.2850 F       
  31 F31           -0.3367     8.2092    -0.6474 F       
  32 F32           -0.3315     9.1490     1.4349 F       
  33 H33           -0.8227     2.0212    -0.5339 H       
  34 H34            1.8604    10.8807     4.3135 H       
  35 H35            2.1954     8.9425     2.8388 H       
  36 H36           -1.5148     7.2768     4.1957 H       
  37 H37            0.7519     5.3902     4.1586 H       
  38 H38            1.0809     3.4819     2.7112 H       
  39 H39            1.8633     2.0353     0.9266 H       
  40 H40            1.9198     1.9082    -0.8479 H       
  41 H41           -0.9956    11.3332     6.4687 H       
  42 H42            1.2227    12.4797     4.9548 H       
  43 H43            0.8736    14.4470     6.4233 H       
  44 H44           -0.6601    13.9141     5.6940 H       
  45 H45            2.3799    11.0482     6.6162 H       
  46 H46            2.6489    12.7734     6.9618 H       
  47 H47            0.5637    10.9933     8.3035 H       
  48 H48            2.0975    11.5263     9.0328 H       
  49 H49            1.3845    13.8902     8.8048 H       
  50 H50           -0.9425    14.3922     8.1107 H       
  51 H51           -1.2115    12.6669     7.7650 H       
  52 H52           -0.7885    -0.5151    -0.5475 H       
  53 H53            0.9756    -0.4941    -0.0099 H       
  54 H54            0.3183     0.7538     2.0984 H       
  55 H55           -1.4458     0.7328     1.5608 H       
  56 H56           -0.3572    13.7075    10.4292 H       
@<TRIPOS>BOND
   1    1   26 1
   2    1   17 1
   3    1   27 1
   4    1   33 1
   5    2    3 ar
   6    2    4 ar
   7    2   34 1
   8    3    7 ar
   9    3   35 1
  10    4    5 ar
  11    4   19 1
  12    5    6 ar
  13    5   18 1
  14    6    7 ar
  15    6   36 1
  16    7    8 1
  17    8    9 2
  18    8   10 1
  19    9   29 1
  20    9   13 1
  21   10   11 2
  22   10   37 1
  23   11   12 1
  24   11   38 1
  25   12   13 1
  26   12   14 1
  27   13   16 2
  28   14   15 2
  29   14   17 1
  30   15   16 1
  31   17   39 1
  32   17   40 1
  33   19   20 1
  34   19   41 1
  35   20   21 1
  36   20   22 1
  37   20   42 1
  38   21   25 1
  39   21   43 1
  40   21   44 1
  41   22   23 1
  42   22   45 1
  43   22   46 1
  44   23   24 1
  45   23   47 1
  46   23   48 1
  47   24   25 1
  48   24   28 1
  49   24   49 1
  50   25   50 1
  51   25   51 1
  52   26   27 1
  53   26   52 1
  54   26   53 1
  55   27   54 1
  56   27   55 1
  57   28   56 1
  58   29   30 1
  59   29   31 1
  60   29   32 1

#	End of record

