#	Name: ASD01120227
#	Creating user name:	WinNT
#	Creation time:	15. 06. 2019 18:59

#	Modifying user name:	WinNT
#	Modification time:	15. 06. 2019 18:59

#	Program:	/corina/corina34_cracker 3.40 0067  02.08.2006

@<TRIPOS>MOLECULE
ASD01120227
  49   50    0    0    0
SMALL
NO_CHARGES


@<TRIPOS>ATOM
   1 C1            -0.0167     1.3791     0.0096 C.ar    
   2 C2             0.0021    -0.0041     0.0020 C.ar    
   3 C3            -1.1857    -0.7112     0.0100 C.ar    
   4 C4            -2.3919    -0.0365     0.0257 C.ar    
   5 C5            -2.4113     1.3460     0.0333 C.ar    
   6 C6            -1.2245     2.0540     0.0306 C.ar    
   7 S7            -3.9495     2.2052     0.0532 S.o2    
   8 N8            -4.3617     2.4358     1.6404 N.am    
   9 C9            -3.6007     3.2226     2.4268 C.2     
  10 N10           -3.9362     3.4102     3.7186 N.am    
  11 O11           -3.6957     3.4949    -0.4869 O.2     
  12 O12           -4.9146     1.3128    -0.4865 O.2     
  13 O13           -2.6116     3.7631     1.9709 O.2     
  14 C14           -1.8009    10.4932     9.9795 C.ar    
  15 C15           -2.8904    11.2534    10.3649 C.ar    
  16 C16           -3.8928    10.6865    11.1296 C.ar    
  17 C17           -3.8065     9.3602    11.5092 C.ar    
  18 C18           -2.7178     8.5998    11.1243 C.ar    
  19 C19           -1.7177     9.1640    10.3554 C.ar    
  20 S20           -2.6087     6.9092    11.6086 S.o2    
  21 N21           -3.3423     6.0121    10.4257 N.am    
  22 C22           -2.8166     5.9738     9.1853 C.2     
  23 N23           -3.4136     5.2437     8.2225 N.am    
  24 O24           -1.2294     6.5696    11.5725 O.2     
  25 O25           -3.4125     6.7726    12.7725 O.2     
  26 O26           -1.8036     6.5980     8.9348 O.2     
  27 C27           -2.8421     5.2021     6.8742 C.3     
  28 C28           -3.7059     4.3089     5.9815 C.3     
  29 Cl29          -0.5420    11.2043     9.0187 Cl      
  30 Cl30           1.4746     2.2678     0.0002 Cl      
  31 C31           -3.1091     4.2655     4.5734 C.3     
  32 H32            0.9445    -0.5314    -0.0105 H       
  33 H33           -1.1712    -1.7911     0.0037 H       
  34 H34           -3.3197    -0.5894     0.0316 H       
  35 H35           -1.2398     3.1339     0.0365 H       
  36 H36           -5.1507     2.0046     2.0041 H       
  37 H37           -4.7253     2.9790     4.0823 H       
  38 H38           -2.9577    12.2898    10.0687 H       
  39 H39           -4.7432    11.2800    11.4309 H       
  40 H40           -4.5897     8.9178    12.1070 H       
  41 H41           -0.8673     8.5700    10.0548 H       
  42 H42           -4.1504     5.5141    10.6255 H       
  43 H43           -4.2217     4.7457     8.4224 H       
  44 H44           -2.8133     6.2101     6.4606 H       
  45 H45           -1.8303     4.7994     6.9208 H       
  46 H46           -3.7347     3.3009     6.3952 H       
  47 H47           -4.7178     4.7116     5.9350 H       
  48 H48           -2.0973     3.8628     4.6199 H       
  49 H49           -3.0803     5.2735     4.1597 H       
@<TRIPOS>BOND
   1    1    2 ar
   2    1   30 1
   3    1    6 ar
   4    2    3 ar
   5    2   32 1
   6    3    4 ar
   7    3   33 1
   8    4    5 ar
   9    4   34 1
  10    5    6 ar
  11    5    7 1
  12    6   35 1
  13    7    8 am
  14    7   11 2
  15    7   12 2
  16    8    9 am
  17    8   36 1
  18    9   10 am
  19    9   13 2
  20   10   31 1
  21   10   37 1
  22   14   15 ar
  23   14   29 1
  24   14   19 ar
  25   15   16 ar
  26   15   38 1
  27   16   17 ar
  28   16   39 1
  29   17   18 ar
  30   17   40 1
  31   18   19 ar
  32   18   20 1
  33   19   41 1
  34   20   21 am
  35   20   24 2
  36   20   25 2
  37   21   22 am
  38   21   42 1
  39   22   23 am
  40   22   26 2
  41   23   27 1
  42   23   43 1
  43   27   28 1
  44   27   44 1
  45   27   45 1
  46   28   31 1
  47   28   46 1
  48   28   47 1
  49   31   48 1
  50   31   49 1

#	End of record

