#	Name: ASD01380018
#	Creating user name:	WinNT
#	Creation time:	15. 06. 2019 19:16

#	Modifying user name:	WinNT
#	Modification time:	15. 06. 2019 19:16

#	Program:	/corina/corina34_cracker 3.40 0067  02.08.2006

@<TRIPOS>MOLECULE
ASD01380018
  67   70    0    0    0
SMALL
NO_CHARGES


@<TRIPOS>ATOM
   1 C1            -1.7437     1.1972    -0.1377 C.3     
   2 C2            -1.7488    -0.3070    -0.0453 C.2     
   3 O3            -2.6047    -0.9469    -0.6191 O.2     
   4 N4            -0.8024    -0.9411     0.6748 N.am    
   5 C5            -0.8698    -2.3299     0.8522 C.ar    
   6 C6             0.3016    -3.0755     0.9397 C.ar    
   7 C7             0.2467    -4.4427     1.1137 C.ar    
   8 C8            -0.9812    -5.0858     1.2034 C.ar    
   9 C9            -2.1672    -4.3395     1.1163 C.ar    
  10 C10           -2.1010    -2.9542     0.9452 C.ar    
  11 C11           -3.4741    -5.0125     1.2098 C.2     
  12 O12           -3.5278    -6.2169     1.3627 O.2     
  13 O13           -4.6103    -4.2926     1.1257 O.3     
  14 C14           -5.8618    -5.0221     1.2260 C.3     
  15 C15           -6.9650    -4.3143     0.4157 C.3     
  16 C16           -7.4956    -5.2521    -0.6706 C.3     
  17 O17           -8.4332    -4.5503    -1.4893 O.3     
  18 P18           -9.1920    -5.2320    -2.7350 P.3     
  19 O19           -9.8916    -6.4535    -2.2780 O.2     
  20 O20          -10.2634    -4.1956    -3.3432 O.3     
  21 P21          -11.5721    -4.3536    -4.2676 P.3     
  22 O22          -12.3926    -5.4814    -3.7725 O.2     
  23 O23          -12.4360    -2.9962    -4.2113 O.3     
  24 P24          -13.9699    -2.6323    -4.5383 P.3     
  25 O25          -14.4025    -3.3629    -5.7505 O.2     
  26 O26          -14.8994    -3.0582    -3.2946 O.3     
  27 O27          -14.1036    -1.0478    -4.7903 O.3     
  28 O28          -11.1243    -4.6421    -5.7869 O.3     
  29 O29           -8.1181    -5.6213    -3.8696 O.3     
  30 O30           -8.0211    -3.9809     1.3321 O.3     
  31 C31           -7.4191    -3.8443     2.6373 C.3     
  32 C32           -6.3869    -4.9996     2.6822 C.3     
  33 O33           -7.0202    -6.2366     3.0150 O.3     
  34 N34           -6.7483    -2.5479     2.7629 N.pl3   
  35 C35           -6.3231    -1.7571     1.7373 C.2     
  36 N36           -5.7701    -0.6773     2.2084 N.2     
  37 C37           -5.8053    -0.7065     3.5622 C.ar    
  38 C38           -6.4382    -1.9044     3.9342 C.ar    
  39 N39           -6.5999    -2.1757     5.2254 N.ar    
  40 C40           -6.1745    -1.3363     6.1456 C.ar    
  41 N41           -5.5744    -0.1989     5.8448 N.ar    
  42 C42           -5.3720     0.1591     4.5811 C.ar    
  43 N43           -4.7418     1.3527     4.2757 N.pl3   
  44 N44           -1.0356    -6.4639     1.3784 N.2     
  45 H45           -2.5778     1.5260    -0.7577 H       
  46 H46           -1.8433     1.6229     0.8608 H       
  47 H47           -0.8064     1.5307    -0.5831 H       
  48 H48           -0.0746    -0.4364     1.0704 H       
  49 H49            1.2593    -2.5809     0.8707 H       
  50 H50            1.1605    -5.0145     1.1801 H       
  51 H51           -3.0089    -2.3731     0.8777 H       
  52 H52           -5.7332    -6.0478     0.8805 H       
  53 H53           -6.5666    -3.4077    -0.0397 H       
  54 H54           -6.6663    -5.6015    -1.2856 H       
  55 H55           -7.9875    -6.1060    -0.2048 H       
  56 H56          -14.6722    -2.6171    -2.4646 H       
  57 H57          -15.0030    -0.7563    -4.9934 H       
  58 H58          -10.5823    -3.9425    -6.1768 H       
  59 H59           -7.6212    -4.8676    -4.2160 H       
  60 H60           -8.1676    -3.9677     3.4200 H       
  61 H61           -5.5822    -4.7753     3.3824 H       
  62 H62           -7.4434    -6.2403     3.8845 H       
  63 H63           -6.4291    -1.9921     0.6885 H       
  64 H64           -6.3220    -1.5869     7.1857 H       
  65 H65           -4.4421     1.9391     4.9879 H       
  66 H66           -4.5999     1.6031     3.3493 H       
  67 H67           -0.2151    -6.9779     1.4380 H       
@<TRIPOS>BOND
   1    1    2 1
   2    1   45 1
   3    1   46 1
   4    1   47 1
   5    2    3 2
   6    2    4 am
   7    4    5 1
   8    4   48 1
   9    5    6 ar
  10    5   10 ar
  11    6    7 ar
  12    6   49 1
  13    7    8 ar
  14    7   50 1
  15    8    9 ar
  16    8   44 1
  17    9   10 ar
  18    9   11 1
  19   10   51 1
  20   11   12 2
  21   11   13 1
  22   13   14 1
  23   14   15 1
  24   14   32 1
  25   14   52 1
  26   15   16 1
  27   15   30 1
  28   15   53 1
  29   16   17 1
  30   16   54 1
  31   16   55 1
  32   17   18 1
  33   18   19 2
  34   18   20 1
  35   18   29 1
  36   20   21 1
  37   21   22 2
  38   21   23 1
  39   21   28 1
  40   23   24 1
  41   24   25 2
  42   24   26 1
  43   24   27 1
  44   26   56 1
  45   27   57 1
  46   28   58 1
  47   29   59 1
  48   30   31 1
  49   31   32 1
  50   31   34 1
  51   31   60 1
  52   32   33 1
  53   32   61 1
  54   33   62 1
  55   34   35 1
  56   34   38 1
  57   35   36 2
  58   35   63 1
  59   36   37 1
  60   37   38 ar
  61   37   42 ar
  62   38   39 ar
  63   39   40 ar
  64   40   41 ar
  65   40   64 1
  66   41   42 ar
  67   42   43 1
  68   43   65 1
  69   43   66 1
  70   44   67 1

#	End of record

