#	Name: ASD03090050
#	Creating user name:	WinNT
#	Creation time:	15. 06. 2019 20:28

#	Modifying user name:	WinNT
#	Modification time:	15. 06. 2019 20:28

#	Program:	/corina/corina34_cracker 3.40 0067  02.08.2006

@<TRIPOS>MOLECULE
ASD03090050
  40   42    0    0    0
SMALL
NO_CHARGES


@<TRIPOS>ATOM
   1 N1            -0.0162     1.3436     0.0094 N.am    
   2 C2             0.0286     0.1500     0.6339 C.2     
   3 O3             1.0859    -0.2746     1.0586 O.2     
   4 N4            -1.0984    -0.5729     0.7876 N.am    
   5 S5            -2.3898    -2.8391     1.7055 S.3     
   6 C6            -1.0522    -1.8044     1.4319 C.2     
   7 N7             0.0125    -2.3610     1.9257 N.2     
   8 N8            -0.1188    -3.4873     2.4808 N.2     
   9 C9            -1.3139    -3.9854     2.5055 C.2     
  10 C10           -1.7137    -5.3073     3.1088 C.3     
  11 F11           -0.6100    -5.8801     3.7498 F       
  12 F12           -2.7394    -5.1045     4.0382 F       
  13 F13           -2.1627    -6.1644     2.0983 F       
  14 C14            1.1402     2.1342    -0.0770 C.ar    
  15 C15            1.0292     3.5188    -0.2087 C.ar    
  16 C16            2.1676     4.3042    -0.2944 C.ar    
  17 C17            3.4212     3.7176    -0.2502 C.ar    
  18 C18            3.5378     2.3282    -0.1182 C.ar    
  19 C19            2.3878     1.5405    -0.0259 C.ar    
  20 O20            5.1152     0.3820     0.0532 O.3     
  21 C21            4.8720     1.6985    -0.0707 C.2     
  22 N22            6.0212     2.3300    -0.1423 N.2     
  23 C23            7.0121     1.4274    -0.0653 C.2     
  24 C24            6.4530     0.2108     0.0567 C.2     
  25 O25            4.5364     4.4887    -0.3353 O.3     
  26 C26            4.3419     5.8981    -0.4690 C.3     
  27 O27           -0.1989     4.0988    -0.2534 O.3     
  28 C28           -0.2403     5.5207    -0.3892 C.3     
  29 H29           -0.8467     1.6543    -0.3838 H       
  30 H30           -1.9419    -0.2341     0.4488 H       
  31 H31            2.0769     5.3755    -0.3962 H       
  32 H32            2.4731     0.4692     0.0805 H       
  33 H33            8.0704     1.6406    -0.0963 H       
  34 H34            6.9778    -0.7293     0.1423 H       
  35 H35            3.7748     6.1021    -1.3772 H       
  36 H36            3.7921     6.2725     0.3945 H       
  37 H37            5.3105     6.3947    -0.5262 H       
  38 H38            0.2549     5.8117    -1.3156 H       
  39 H39           -1.2781     5.8534    -0.4119 H       
  40 H40            0.2705     5.9815     0.4562 H       
@<TRIPOS>BOND
   1    1    2 am
   2    1   14 1
   3    1   29 1
   4    2    3 2
   5    2    4 am
   6    4    6 1
   7    4   30 1
   8    5    6 1
   9    5    9 1
  10    6    7 2
  11    7    8 1
  12    8    9 2
  13    9   10 1
  14   10   11 1
  15   10   12 1
  16   10   13 1
  17   14   15 ar
  18   14   19 ar
  19   15   16 ar
  20   15   27 1
  21   16   17 ar
  22   16   31 1
  23   17   18 ar
  24   17   25 1
  25   18   19 ar
  26   18   21 1
  27   19   32 1
  28   20   21 1
  29   20   24 1
  30   21   22 2
  31   22   23 1
  32   23   24 2
  33   23   33 1
  34   24   34 1
  35   25   26 1
  36   26   35 1
  37   26   36 1
  38   26   37 1
  39   27   28 1
  40   28   38 1
  41   28   39 1
  42   28   40 1

#	End of record

