#	Name: ASD07930407
#	Creating user name:	WinNT
#	Creation time:	15. 06. 2019 21:12

#	Modifying user name:	WinNT
#	Modification time:	15. 06. 2019 21:12

#	Program:	/corina/corina34_cracker 3.40 0067  02.08.2006

@<TRIPOS>MOLECULE
ASD07930407
  45   47    0    0    0
SMALL
NO_CHARGES


@<TRIPOS>ATOM
   1 N1             1.9372    -2.8806    -0.4248 N.2     
   2 N2            -0.3255    -2.8517    -1.0084 N.pl3   
   3 C3            -1.3637    -1.8163    -0.9741 C.3     
   4 C4            -1.3747    -1.0660    -2.3131 C.3     
   5 S5             0.2937    -0.3998    -2.6082 S.o2    
   6 N6             1.2691    -1.7264    -2.3522 N.am    
   7 C7             0.9894    -2.4997    -1.2345 C.2     
   8 C8             2.3674    -2.0600    -3.2625 C.3     
   9 C9            -1.0674    -0.8330     0.1601 C.3     
  10 C10           -2.7078    -2.4586    -0.7462 C.ar    
  11 C11           -3.1981    -3.3779    -1.6578 C.ar    
  12 C12           -4.4332    -3.9699    -1.4518 C.ar    
  13 C13           -5.1790    -3.6435    -0.3343 C.ar    
  14 C14           -4.6870    -2.7203     0.5825 C.ar    
  15 C15           -3.4466    -2.1335     0.3754 C.ar    
  16 O16            0.4746    -0.0827    -3.9815 O.2     
  17 O17            0.6595     0.5156    -1.5847 O.2     
  18 F18           -2.4708    -3.6978    -2.7505 F       
  19 F19           -6.3841    -4.2200    -0.1334 F       
  20 N20           -5.4403    -2.3869     1.7152 N.am    
  21 C21           -4.8195    -2.0962     2.8756 C.2     
  22 O22           -3.6127    -2.2105     2.9646 O.2     
  23 C23           -5.6077    -1.6374     4.0422 C.ar    
  24 N24           -6.9254    -1.5146     3.9387 N.ar    
  25 C25           -7.6623    -1.1106     4.9499 C.ar    
  26 C26           -7.0844    -0.7957     6.1710 C.ar    
  27 C27           -5.7097    -0.9103     6.3221 C.ar    
  28 C28           -4.9602    -1.3438     5.2409 C.ar    
  29 Cl29          -8.0708    -0.2631     7.4966 Cl      
  30 H30            2.8562    -2.6236    -0.5990 H       
  31 H31           -0.5623    -3.7819    -0.8684 H       
  32 H32           -1.6438    -1.7519    -3.1164 H       
  33 H33           -2.0945    -0.2486    -2.2705 H       
  34 H34            3.2791    -1.5647    -2.9288 H       
  35 H35            2.5208    -3.1392    -3.2666 H       
  36 H36            2.1193    -1.7245    -4.2695 H       
  37 H37           -0.0960    -0.3677    -0.0070 H       
  38 H38           -1.8393    -0.0638     0.1850 H       
  39 H39           -1.0558    -1.3671     1.1102 H       
  40 H40           -4.8139    -4.6866    -2.1644 H       
  41 H41           -3.0626    -1.4168     1.0861 H       
  42 H42           -6.4087    -2.3654     1.6646 H       
  43 H43           -8.7318    -1.0224     4.8281 H       
  44 H44           -5.2355    -0.6713     7.2626 H       
  45 H45           -3.8881    -1.4446     5.3230 H       
@<TRIPOS>BOND
   1    1    7 2
   2    1   30 1
   3    2    3 1
   4    2    7 1
   5    2   31 1
   6    3    4 1
   7    3    9 1
   8    3   10 1
   9    4    5 1
  10    4   32 1
  11    4   33 1
  12    5    6 am
  13    5   16 2
  14    5   17 2
  15    6    7 1
  16    6    8 1
  17    8   34 1
  18    8   35 1
  19    8   36 1
  20    9   37 1
  21    9   38 1
  22    9   39 1
  23   10   11 ar
  24   10   15 ar
  25   11   12 ar
  26   11   18 1
  27   12   13 ar
  28   12   40 1
  29   13   14 ar
  30   13   19 1
  31   14   15 ar
  32   14   20 1
  33   15   41 1
  34   20   21 am
  35   20   42 1
  36   21   22 2
  37   21   23 1
  38   23   24 ar
  39   23   28 ar
  40   24   25 ar
  41   25   26 ar
  42   25   43 1
  43   26   27 ar
  44   26   29 1
  45   27   28 ar
  46   27   44 1
  47   28   45 1

#	End of record

