#	Name: ASD01440018
#	Creating user name:	WinNT
#	Creation time:	15. 06. 2019 19:20

#	Modifying user name:	WinNT
#	Modification time:	15. 06. 2019 19:20

#	Program:	/corina/corina34_cracker 3.40 0067  02.08.2006

@<TRIPOS>MOLECULE
ASD01440018
  97  102    0    0    0
SMALL
NO_CHARGES


@<TRIPOS>ATOM
   1 N1             0.0107     1.3387    -0.0086 N.ar    
   2 C2             0.0204     0.0163    -0.0144 C.ar    
   3 C3             1.2210    -0.6826    -0.0240 C.ar    
   4 C4             2.4110     0.0235    -0.0276 C.ar    
   5 C5             2.3578     1.4107    -0.0214 C.ar    
   6 C6             1.1289     2.0394    -0.0118 C.ar    
   7 C7             1.2272    -2.1896    -0.0300 C.3     
   8 C8             0.4966    -2.7282     1.1816 C.2     
   9 C9             0.4319    -2.7182    -1.2020 C.ar    
  10 N10            2.6014    -2.6960    -0.0681 N.am    
  11 C11           -0.6136    -3.4613    -0.6610 C.ar    
  12 C12            0.5756    -2.5864    -2.5603 C.ar    
  13 C13           -0.3389    -3.2054    -3.4194 C.ar    
  14 C14           -1.3906    -3.9527    -2.8824 C.ar    
  15 C15           -1.5258    -4.0776    -1.5194 C.ar    
  16 C16           -0.1984    -3.0739    -4.8384 C.1     
  17 N17           -0.5452    -3.4456     0.7292 N.am    
  18 C18           -2.9304    -3.0885     2.0550 C.ar    
  19 C19           -2.6728    -1.9332     2.7789 C.ar    
  20 C20           -4.2081    -3.3474     1.5963 C.ar    
  21 C21           -5.2317    -2.4569     1.8567 C.ar    
  22 C22           -4.9791    -1.2998     2.5804 C.ar    
  23 C23           -3.6985    -1.0380     3.0419 C.ar    
  24 O24           -5.9864    -0.4243     2.8366 O.3     
  25 O25           -1.4163    -1.6794     3.2300 O.3     
  26 O26            0.7960    -2.5466     2.3427 O.2     
  27 C27            3.4659    -2.3736     0.9144 C.2     
  28 O28            3.1310    -1.5973     1.7882 O.2     
  29 N29            4.7014    -2.9118     0.9283 N.am    
  30 C30            5.6984    -2.4876     1.9229 C.3     
  31 C31            6.2720    -3.7367     2.6005 C.3     
  32 N32            6.7728    -4.6604     1.5739 N.3     
  33 C33            5.6862    -5.1307     0.7044 C.3     
  34 C34            5.0866    -3.9431    -0.0470 C.3     
  35 C35            7.4847    -5.7908     2.1849 C.3     
  36 C36            7.8825    -6.7929     1.0977 C.3     
  37 C37            8.6764    -7.9375     1.7316 C.3     
  38 N38            9.8744    -7.3991     2.3883 N.3     
  39 C39            9.5162    -6.4701     3.4677 C.3     
  40 C40            8.7474    -5.2818     2.8856 C.3     
  41 C41           10.7321    -8.4817     2.8885 C.3     
  42 O42           -1.1532    -0.6644    -0.0103 O.3     
  43 C43           -2.3532     0.1116     0.0001 C.3     
  44 C44           -3.5647    -0.8227     0.0033 C.3     
  45 N45           -0.0870    -2.9695    -5.9641 N.1     
  46 C46           -7.2805    -0.7584     2.3309 C.3     
  47 C47           -1.2238    -0.4711     3.9683 C.3     
  48 C48            0.2428    -0.3589     4.3895 C.3     
  49 C49           12.0749    -7.9023     3.3381 C.3     
  50 S50           -1.6260    -4.2230     1.7141 S.o2    
  51 O51           -2.1959    -5.2683     0.9383 O.2     
  52 O52           -0.9563    -4.4467     2.9472 O.2     
  53 H53            3.3596    -0.4928    -0.0347 H       
  54 H54            3.2682     1.9919    -0.0236 H       
  55 H55            1.0820     3.1184    -0.0073 H       
  56 H56            2.8891    -3.2633    -0.8004 H       
  57 H57            1.3918    -2.0063    -2.9649 H       
  58 H58           -2.1001    -4.4332    -3.5399 H       
  59 H59           -2.3411    -4.6565    -1.1112 H       
  60 H60           -4.4067    -4.2472     1.0330 H       
  61 H61           -6.2292    -2.6610     1.4966 H       
  62 H62           -3.5000    -0.1384     3.6055 H       
  63 H63            6.4996    -1.9393     1.4275 H       
  64 H64            5.2230    -1.8517     2.6697 H       
  65 H65            7.0899    -3.4491     3.2611 H       
  66 H66            5.4904    -4.2271     3.1808 H       
  67 H67            6.0792    -5.8540    -0.0101 H       
  68 H68            4.9127    -5.6016     1.3111 H       
  69 H69            4.2083    -4.2683    -0.6046 H       
  70 H70            5.8275    -3.5318    -0.7326 H       
  71 H71            6.8359    -6.2800     2.9115 H       
  72 H72            6.9853    -7.1911     0.6239 H       
  73 H73            8.4985    -6.2933     0.3500 H       
  74 H74            8.0551    -8.4454     2.4694 H       
  75 H75            8.9735    -8.6455     0.9580 H       
  76 H76            8.8910    -6.9849     4.1973 H       
  77 H77           10.4232    -6.1124     3.9550 H       
  78 H78            9.3770    -4.7583     2.1660 H       
  79 H79            8.4681    -4.6003     3.6891 H       
  80 H80           10.2458    -8.9697     3.7332 H       
  81 H81           10.8982    -9.2099     2.0946 H       
  82 H82           -2.3739     0.7365     0.8929 H       
  83 H83           -2.3845     0.7442    -0.8870 H       
  84 H84           -3.5439    -1.4477    -0.8895 H       
  85 H85           -3.5334    -1.4553     0.8904 H       
  86 H86           -4.4800    -0.2308     0.0113 H       
  87 H87           -7.9903     0.0221     2.6051 H       
  88 H88           -7.2355    -0.8434     1.2452 H       
  89 H89           -7.6029    -1.7086     2.7567 H       
  90 H90           -1.4888     0.3823     3.3441 H       
  91 H91           -1.8568    -0.4827     4.8556 H       
  92 H92            0.3896     0.5627     4.9527 H       
  93 H93            0.5078    -1.2123     5.0138 H       
  94 H94            0.8758    -0.3473     3.5023 H       
  95 H95           12.7113    -8.7056     3.7093 H       
  96 H96           12.5611    -7.4143     2.4934 H       
  97 H97           11.9088    -7.1741     4.1320 H       
@<TRIPOS>BOND
   1    1    2 ar
   2    1    6 ar
   3    2    3 ar
   4    2   42 1
   5    3    4 ar
   6    3    7 1
   7    4    5 ar
   8    4   53 1
   9    5    6 ar
  10    5   54 1
  11    6   55 1
  12    7    8 1
  13    7    9 1
  14    7   10 1
  15    8   17 am
  16    8   26 2
  17    9   11 ar
  18    9   12 ar
  19   10   27 am
  20   10   56 1
  21   11   17 1
  22   11   15 ar
  23   12   13 ar
  24   12   57 1
  25   13   14 ar
  26   13   16 1
  27   14   15 ar
  28   14   58 1
  29   15   59 1
  30   16   45 3
  31   17   50 am
  32   18   19 ar
  33   18   20 ar
  34   18   50 1
  35   19   25 1
  36   19   23 ar
  37   20   21 ar
  38   20   60 1
  39   21   22 ar
  40   21   61 1
  41   22   23 ar
  42   22   24 1
  43   23   62 1
  44   24   46 1
  45   25   47 1
  46   27   28 2
  47   27   29 am
  48   29   30 1
  49   29   34 1
  50   30   31 1
  51   30   63 1
  52   30   64 1
  53   31   32 1
  54   31   65 1
  55   31   66 1
  56   32   33 1
  57   32   35 1
  58   33   34 1
  59   33   67 1
  60   33   68 1
  61   34   69 1
  62   34   70 1
  63   35   36 1
  64   35   40 1
  65   35   71 1
  66   36   37 1
  67   36   72 1
  68   36   73 1
  69   37   38 1
  70   37   74 1
  71   37   75 1
  72   38   39 1
  73   38   41 1
  74   39   40 1
  75   39   76 1
  76   39   77 1
  77   40   78 1
  78   40   79 1
  79   41   49 1
  80   41   80 1
  81   41   81 1
  82   42   43 1
  83   43   44 1
  84   43   82 1
  85   43   83 1
  86   44   84 1
  87   44   85 1
  88   44   86 1
  89   46   87 1
  90   46   88 1
  91   46   89 1
  92   47   48 1
  93   47   90 1
  94   47   91 1
  95   48   92 1
  96   48   93 1
  97   48   94 1
  98   49   95 1
  99   49   96 1
 100   49   97 1
 101   50   51 2
 102   50   52 2

#	End of record

