#	Name: ASD01230671
#	Creating user name:	WinNT
#	Creation time:	15. 06. 2019 19:14

#	Modifying user name:	WinNT
#	Modification time:	15. 06. 2019 19:14

#	Program:	/corina/corina34_cracker 3.40 0067  02.08.2006

@<TRIPOS>MOLECULE
ASD01230671
  39   42    0    0    0
SMALL
NO_CHARGES


@<TRIPOS>ATOM
   1 C1             0.2080     1.1133    -0.3941 C.ar    
   2 C2             0.0341    -0.1989    -0.8572 C.ar    
   3 C3             1.0808    -0.8151    -1.5424 C.ar    
   4 C4             2.2528    -0.1003    -1.7366 C.ar    
   5 C5             2.3503     1.1891    -1.2512 C.ar    
   6 N6             1.3465     1.7528    -0.6053 N.ar    
   7 N7            -0.8234     1.7473     0.2853 N.pl3   
   8 C8            -1.2406    -0.9189    -0.6219 C.ar    
   9 C9            -1.8905    -1.5527    -1.6801 C.ar    
  10 C10           -3.0758    -2.2215    -1.4582 C.ar    
  11 C11           -3.6225    -2.2638    -0.1825 C.ar    
  12 C12           -2.9776    -1.6336     0.8734 C.ar    
  13 C13           -1.7888    -0.9684     0.6590 C.ar    
  14 O14           -4.7910    -2.9228     0.0329 O.3     
  15 O15           -6.8541    -7.2353     0.9238 O.3     
  16 C16           -6.3649    -8.3761     1.6489 C.3     
  17 C17           -4.8596    -8.3896     1.2922 C.3     
  18 C18           -4.6040    -6.9324     0.9584 C.ar    
  19 C19           -5.8444    -6.3357     0.7665 C.ar    
  20 C20           -3.4419    -6.2032     0.8345 C.ar    
  21 C21           -3.4988    -4.8572     0.5227 C.ar    
  22 C22           -4.7306    -4.2461     0.3355 C.ar    
  23 C23           -5.8986    -4.9803     0.4564 C.ar    
  24 H24            0.9811    -1.8248    -1.9124 H       
  25 H25            3.0828    -0.5481    -2.2629 H       
  26 H26            3.2634     1.7457    -1.4027 H       
  27 H27           -1.6611     1.2827     0.4383 H       
  28 H28           -0.7065     2.6549     0.6069 H       
  29 H29           -1.4662    -1.5195    -2.6727 H       
  30 H30           -3.5797    -2.7126    -2.2775 H       
  31 H31           -3.4052    -1.6682     1.8646 H       
  32 H32           -1.2852    -0.4826     1.4816 H       
  33 H33           -6.5064    -8.2417     2.7213 H       
  34 H34           -6.8513    -9.2893     1.3057 H       
  35 H35           -4.2597    -8.7048     2.1459 H       
  36 H36           -4.6697    -9.0264     0.4281 H       
  37 H37           -2.4855    -6.6831     0.9813 H       
  38 H38           -2.5887    -4.2839     0.4259 H       
  39 H39           -6.8545    -4.4994     0.3095 H       
@<TRIPOS>BOND
   1    1    2 ar
   2    1    6 ar
   3    1    7 1
   4    2    3 ar
   5    2    8 1
   6    3    4 ar
   7    3   24 1
   8    4    5 ar
   9    4   25 1
  10    5    6 ar
  11    5   26 1
  12    7   27 1
  13    7   28 1
  14    8    9 ar
  15    8   13 ar
  16    9   10 ar
  17    9   29 1
  18   10   11 ar
  19   10   30 1
  20   11   12 ar
  21   11   14 1
  22   12   13 ar
  23   12   31 1
  24   13   32 1
  25   14   22 1
  26   15   16 1
  27   15   19 1
  28   16   17 1
  29   16   33 1
  30   16   34 1
  31   17   18 1
  32   17   35 1
  33   17   36 1
  34   18   19 ar
  35   18   20 ar
  36   19   23 ar
  37   20   21 ar
  38   20   37 1
  39   21   22 ar
  40   21   38 1
  41   22   23 ar
  42   23   39 1

#	End of record

