#	Name: ASD04560070
#	Creating user name:	WinNT
#	Creation time:	15. 06. 2019 20:49

#	Modifying user name:	WinNT
#	Modification time:	15. 06. 2019 20:49

#	Program:	/corina/corina34_cracker 3.40 0067  02.08.2006

@<TRIPOS>MOLECULE
ASD04560070
  42   45    0    0    0
SMALL
NO_CHARGES


@<TRIPOS>ATOM
   1 C1            -0.0173     1.3666     0.0244 C.ar    
   2 C2             0.0010    -0.0041     0.0240 C.ar    
   3 C3             1.2157    -0.6859     0.0136 C.ar    
   4 C4             2.4151     0.0225     0.0034 C.ar    
   5 C5             2.4031     1.3933     0.0042 C.ar    
   6 C6             1.1852     2.0805     0.0143 C.ar    
   7 C7             1.1690     3.5549     0.0146 C.2     
   8 O8             2.2154     4.1746     0.0062 O.2     
   9 N9            -0.0055     4.2159     0.0243 N.am    
  10 C10           -0.0226     5.6108     0.1376 C.ar    
  11 C11           -0.9920     6.3506    -0.5268 C.ar    
  12 C12            0.9074     7.6331     1.0301 C.ar    
  13 C13            0.9263     6.2566     0.9193 C.ar    
  14 S14            1.2351    -2.4478     0.0137 S.3     
  15 C15           -1.0073     7.7269    -0.4133 C.ar    
  16 C16           -0.0567     8.3693     0.3621 C.ar    
  17 C17            3.0069    -2.8364    -0.0017 C.3     
  18 C18            3.1932    -4.3318    -0.0030 C.2     
  19 S19            3.3169    -5.2852     1.4069 S.3     
  20 N20            3.2730    -5.0462    -1.0613 N.2     
  21 C21            3.4397    -6.3742    -0.9127 C.ar    
  22 C22            3.4952    -6.7433     0.4362 C.ar    
  23 F23           -0.0734     9.7157     0.4718 F       
  24 C24            3.5573    -7.3817    -1.8911 C.ar    
  25 C25            3.7231    -8.6831    -1.5247 C.ar    
  26 C26            3.7796    -9.0420    -0.1856 C.ar    
  27 C27            3.6640    -8.0794     0.7921 C.ar    
  28 H28           -0.9594     1.8947     0.0280 H       
  29 H29           -0.9274    -0.5560     0.0322 H       
  30 H30            3.3553    -0.5088    -0.0047 H       
  31 H31            3.3333     1.9420    -0.0029 H       
  32 H32           -0.8390     3.7249    -0.0472 H       
  33 H33           -1.7331     5.8500    -1.1322 H       
  34 H34            1.6452     8.1357     1.6379 H       
  35 H35            1.6784     5.6828     1.4404 H       
  36 H36           -1.7610     8.3026    -0.9299 H       
  37 H37            3.4641    -2.4125    -0.8957 H       
  38 H38            3.4796    -2.4122     0.8841 H       
  39 H39            3.5152    -7.1203    -2.9381 H       
  40 H40            3.8114    -9.4446    -2.2854 H       
  41 H41            3.9111   -10.0779     0.0901 H       
  42 H42            3.7084    -8.3595     1.8342 H       
@<TRIPOS>BOND
   1    1    2 ar
   2    1    6 ar
   3    1   28 1
   4    2    3 ar
   5    2   29 1
   6    3    4 ar
   7    3   14 1
   8    4    5 ar
   9    4   30 1
  10    5    6 ar
  11    5   31 1
  12    6    7 1
  13    7    8 2
  14    7    9 am
  15    9   10 1
  16    9   32 1
  17   10   11 ar
  18   10   13 ar
  19   11   15 ar
  20   11   33 1
  21   12   13 ar
  22   12   16 ar
  23   12   34 1
  24   13   35 1
  25   14   17 1
  26   15   16 ar
  27   15   36 1
  28   16   23 1
  29   17   18 1
  30   17   37 1
  31   17   38 1
  32   18   20 2
  33   18   19 1
  34   19   22 1
  35   20   21 1
  36   21   22 ar
  37   21   24 ar
  38   22   27 ar
  39   24   25 ar
  40   24   39 1
  41   25   26 ar
  42   25   40 1
  43   26   27 ar
  44   26   41 1
  45   27   42 1

#	End of record

