#	Name: ASD07930357
#	Creating user name:	WinNT
#	Creation time:	15. 06. 2019 21:12

#	Modifying user name:	WinNT
#	Modification time:	15. 06. 2019 21:12

#	Program:	/corina/corina34_cracker 3.40 0067  02.08.2006

@<TRIPOS>MOLECULE
ASD07930357
  49   50    0    0    0
SMALL
NO_CHARGES


@<TRIPOS>ATOM
   1 N1             0.0698     1.4484     0.1944 N.pl3   
   2 C2             0.0021    -0.0041     0.0020 C.3     
   3 C3             0.5413    -0.7047     1.2572 C.3     
   4 N4             2.0270     1.5670     1.4927 N.am    
   5 C5             1.2727     2.0493     0.4475 C.2     
   6 C6            -1.4293    -0.4153    -0.2285 C.ar    
   7 C7            -1.7138    -1.5333    -0.9930 C.ar    
   8 C8             2.6271     2.4627     2.4846 C.3     
   9 C9             0.8502    -0.3996    -1.2084 C.3     
  10 C10           -2.4597     0.3218     0.3290 C.ar    
  11 C11           -3.7749    -0.0564     0.1181 C.ar    
  12 C12           -4.0602    -1.1699    -0.6491 C.ar    
  13 C13           -3.0311    -1.9108    -1.2039 C.ar    
  14 F14           -0.7087    -2.2560    -1.5337 F       
  15 F15           -2.1821     1.4103     1.0796 F       
  16 F16           -3.3103    -2.9990    -1.9542 F       
  17 N17           -4.8761     0.7322     0.7152 N.pl3   
  18 O18           -6.0332     0.3999     0.5299 O.2     
  19 O19           -4.6252     1.7134     1.3918 O.2     
  20 S20            2.2239    -0.0856     1.5750 S.o2    
  21 O21            2.6069    -0.3336     2.9207 O.2     
  22 O22            3.0890    -0.3971     0.4916 O.2     
  23 N23            1.6980     3.0631    -0.2905 N.2     
  24 O24            1.3810     4.5487    -2.0543 O.3     
  25 C25            0.5289     4.9797    -3.1175 C.3     
  26 C26           -0.8174     5.4255    -2.5432 C.3     
  27 C27            1.1830     6.1513    -3.8524 C.3     
  28 C28            0.3086     3.8235    -4.0950 C.3     
  29 C29            0.9475     3.5155    -1.3022 C.2     
  30 O30           -0.1261     2.9950    -1.5438 O.2     
  31 H31           -0.7374     1.9833     0.1382 H       
  32 H32           -0.1005    -0.4791     2.1088 H       
  33 H33            0.5707    -1.7819     1.0932 H       
  34 H34            2.3737     3.4948     2.2426 H       
  35 H35            2.2437     2.2171     3.4749 H       
  36 H36            3.7104     2.3425     2.4743 H       
  37 H37            1.8195     0.0956    -1.1504 H       
  38 H38            0.9939    -1.4800    -1.2140 H       
  39 H39            0.3413    -0.0960    -2.1234 H       
  40 H40           -5.0863    -1.4645    -0.8125 H       
  41 H41           -0.6604     6.2492    -1.8468 H       
  42 H42           -1.4673     5.7542    -3.3542 H       
  43 H43           -1.2834     4.5908    -2.0196 H       
  44 H44            2.1421     5.8337    -4.2615 H       
  45 H45            0.5331     6.4800    -4.6633 H       
  46 H46            1.3400     6.9750    -3.1560 H       
  47 H47           -0.1575     2.9888    -3.5714 H       
  48 H48           -0.3414     4.1522    -4.9060 H       
  49 H49            1.2677     3.5058    -4.5041 H       
@<TRIPOS>BOND
   1    1    2 1
   2    1    5 1
   3    1   31 1
   4    2    3 1
   5    2    6 1
   6    2    9 1
   7    3   20 1
   8    3   32 1
   9    3   33 1
  10    4    5 1
  11    4    8 1
  12    4   20 am
  13    5   23 2
  14    6   10 ar
  15    6    7 ar
  16    7   14 1
  17    7   13 ar
  18    8   34 1
  19    8   35 1
  20    8   36 1
  21    9   37 1
  22    9   38 1
  23    9   39 1
  24   10   11 ar
  25   10   15 1
  26   11   12 ar
  27   11   17 1
  28   12   13 ar
  29   12   40 1
  30   13   16 1
  31   17   18 2
  32   17   19 2
  33   20   21 2
  34   20   22 2
  35   23   29 1
  36   24   25 1
  37   24   29 1
  38   25   26 1
  39   25   27 1
  40   25   28 1
  41   26   41 1
  42   26   42 1
  43   26   43 1
  44   27   44 1
  45   27   45 1
  46   27   46 1
  47   28   47 1
  48   28   48 1
  49   28   49 1
  50   29   30 2

#	End of record

