#	Name: ASD01911424
#	Creating user name:	WinNT
#	Creation time:	15. 06. 2019 19:57

#	Modifying user name:	WinNT
#	Modification time:	15. 06. 2019 19:57

#	Program:	/corina/corina34_cracker 3.40 0067  02.08.2006

@<TRIPOS>MOLECULE
ASD01911424
  34   36    0    0    0
SMALL
NO_CHARGES


@<TRIPOS>ATOM
   1 N1            -0.0035     1.3814     0.2117 N.2     
   2 N2             0.0014    -0.0032     0.0008 N.pl3   
   3 C3             1.2359     1.8188     0.1323 C.2     
   4 C4             2.0746     0.7236    -0.1328 C.2     
   5 C5             1.2920    -0.3914    -0.2101 C.2     
   6 C6             1.7581    -1.7701    -0.4748 C.ar    
   7 C7             1.6722     3.2283     0.2947 C.ar    
   8 C8             0.7339     4.2243     0.5565 C.ar    
   9 C9            -1.1723    -0.8799     0.0061 C.3     
  10 C10           -1.6610    -1.0737    -1.4062 C.2     
  11 O11           -2.7331    -1.8450    -1.6455 O.3     
  12 O12           -1.0876    -0.5349    -2.3231 O.2     
  13 C13            1.1437     5.5333     0.7067 C.ar    
  14 C14            2.4861     5.8578     0.5975 C.ar    
  15 C15            3.4225     4.8705     0.3372 C.ar    
  16 C16            3.0219     3.5581     0.1914 C.ar    
  17 F17            2.8832     7.1407     0.7448 F       
  18 C18            3.1001    -2.0001    -0.7773 C.ar    
  19 N19            0.8963    -2.7788    -0.4171 N.ar    
  20 C20            1.2705    -4.0207    -0.6460 C.ar    
  21 C21            2.5867    -4.3206    -0.9571 C.ar    
  22 C22            3.5219    -3.2946    -1.0227 C.ar    
  23 F23            2.9586    -5.5985    -1.1894 F       
  24 H24            3.1473     0.7579    -0.2537 H       
  25 H25           -0.3129     3.9723     0.6414 H       
  26 H26           -0.9024    -1.8458     0.4330 H       
  27 H27           -1.9621    -0.4260     0.6048 H       
  28 H28           -3.0091    -1.9394    -2.5675 H       
  29 H29            0.4169     6.3061     0.9093 H       
  30 H30            4.4681     5.1277     0.2529 H       
  31 H31            3.7526     2.7890    -0.0112 H       
  32 H32            3.8002    -1.1788    -0.8198 H       
  33 H33            0.5416    -4.8157    -0.5902 H       
  34 H34            4.5539    -3.5027    -1.2635 H       
@<TRIPOS>BOND
   1    1    2 1
   2    1    3 2
   3    2    9 1
   4    2    5 1
   5    3    4 1
   6    3    7 1
   7    4    5 2
   8    4   24 1
   9    5    6 1
  10    6   18 ar
  11    6   19 ar
  12    7    8 ar
  13    7   16 ar
  14    8   13 ar
  15    8   25 1
  16    9   10 1
  17    9   26 1
  18    9   27 1
  19   10   11 1
  20   10   12 2
  21   11   28 1
  22   13   14 ar
  23   13   29 1
  24   14   15 ar
  25   14   17 1
  26   15   16 ar
  27   15   30 1
  28   16   31 1
  29   18   22 ar
  30   18   32 1
  31   19   20 ar
  32   20   21 ar
  33   20   33 1
  34   21   22 ar
  35   21   23 1
  36   22   34 1

#	End of record

