#	Name: ASD04910185
#	Creating user name:	WinNT
#	Creation time:	15. 06. 2019 20:55

#	Modifying user name:	WinNT
#	Modification time:	15. 06. 2019 20:55

#	Program:	/corina/corina34_cracker 3.40 0067  02.08.2006

@<TRIPOS>MOLECULE
ASD04910185
  28   29    0    0    0
SMALL
NO_CHARGES


@<TRIPOS>ATOM
   1 C1             0.0691     1.5140     0.0742 C.ar    
   2 C2            -0.0724     0.1395    -0.0517 C.ar    
   3 C3             1.0464    -0.6654    -0.1314 C.ar    
   4 C4             2.3132    -0.0994    -0.0856 C.ar    
   5 C5             2.4544     1.2759     0.0403 C.ar    
   6 C6             1.3350     2.0801     0.1200 C.ar    
   7 O7            -1.0328     2.3067     0.1470 O.3     
   8 N8             3.4508    -0.9173    -0.1662 N.pl3   
   9 N9             3.7201    -1.9147     0.6017 N.2     
  10 N10            4.8379    -2.4506     0.2592 N.2     
  11 C11            5.3407    -1.7828    -0.7850 C.2     
  12 C12            4.4581    -0.7975    -1.0734 C.2     
  13 C13            6.6332    -2.0737    -1.5032 C.3     
  14 F14            7.2019    -3.2421    -0.9850 F       
  15 F15            6.3800    -2.2440    -2.8685 F       
  16 F16            7.5177    -1.0048    -1.3227 F       
  17 C17            3.8293     1.8909     0.0906 C.3     
  18 C18            0.8926    -2.1583    -0.2677 C.3     
  19 H19           -1.0580    -0.3008    -0.0870 H       
  20 H20            1.4447     3.1501     0.2181 H       
  21 H21           -1.3515     2.4555     1.0477 H       
  22 H22            4.5383    -0.0638    -1.8619 H       
  23 H23            4.1917     2.0539    -0.9244 H       
  24 H24            3.7819     2.8442     0.6170 H       
  25 H25            4.5087     1.2194     0.6155 H       
  26 H26            0.8115    -2.4205    -1.3226 H       
  27 H27            1.7620    -2.6541     0.1642 H       
  28 H28           -0.0070    -2.4803     0.2569 H       
@<TRIPOS>BOND
   1    1    2 ar
   2    1    6 ar
   3    1    7 1
   4    2    3 ar
   5    2   19 1
   6    3    4 ar
   7    3   18 1
   8    4    5 ar
   9    4    8 1
  10    5    6 ar
  11    5   17 1
  12    6   20 1
  13    7   21 1
  14    8    9 1
  15    8   12 1
  16    9   10 2
  17   10   11 1
  18   11   12 2
  19   11   13 1
  20   12   22 1
  21   13   14 1
  22   13   15 1
  23   13   16 1
  24   17   23 1
  25   17   24 1
  26   17   25 1
  27   18   26 1
  28   18   27 1
  29   18   28 1

#	End of record

