#	Name: ASD01882421
#	Creating user name:	WinNT
#	Creation time:	15. 06. 2019 19:44

#	Modifying user name:	WinNT
#	Modification time:	15. 06. 2019 19:44

#	Program:	/corina/corina34_cracker 3.40 0067  02.08.2006

@<TRIPOS>MOLECULE
ASD01882421
  61   66    0    0    0
SMALL
NO_CHARGES


@<TRIPOS>ATOM
   1 C1            -0.0114     1.4057     0.5273 C.3     
   2 N2             0.2041    -0.0364     0.2981 N.3     
   3 C3             1.6440    -0.2627     0.0473 C.3     
   4 C4             2.3586     0.9357     0.7229 C.3     
   5 C5             1.3645     2.0859     0.4471 C.3     
   6 C6             1.5983     2.6607    -0.9436 C.3     
   7 C7             0.5684     3.7624    -1.2195 C.3     
   8 N8             0.6196     4.7402    -0.1239 N.pl3   
   9 C9             0.4639     4.2661     1.2580 C.3     
  10 C10            1.4943     3.1610     1.5177 C.3     
  11 C11           -0.5701    -0.4951    -0.7742 C.ar    
  12 C12           -1.9399    -0.2548    -0.7974 C.ar    
  13 C13           -2.7016    -0.7088    -1.8580 C.ar    
  14 C14           -2.1012    -1.4019    -2.8960 C.ar    
  15 C15           -0.7381    -1.6416    -2.8740 C.ar    
  16 C16            0.0286    -1.1853    -1.8184 C.ar    
  17 F17           -2.8472    -1.8452    -3.9315 F       
  18 F18           -2.5253     0.4209     0.2154 F       
  19 C19            0.0335     8.3537    -0.4149 C.2     
  20 C20           -0.1855     6.9936    -0.1376 C.2     
  21 C21            0.8126     6.0923    -0.3907 C.2     
  22 C22            2.0399     6.5432    -0.9237 C.2     
  23 C23            2.2283     7.8520    -1.1820 C.2     
  24 N24            1.2395     8.7587    -0.9333 N.pl3   
  25 N25           -0.0493    10.4672    -0.6877 N.2     
  26 N26           -0.7139     9.4398    -0.2898 N.2     
  27 C27            1.1421    10.1102    -1.0893 C.2     
  28 C28           -1.5028     6.5334     0.4317 C.3     
  29 F29           -1.4183     6.4910     1.8275 F       
  30 F30           -2.5118     7.4252     0.0524 F       
  31 F31           -1.8012     5.2567    -0.0564 F       
  32 C32            2.2121    11.0246    -1.6278 C.3     
  33 C33            2.0650    11.1432    -3.1461 C.3     
  34 C34            2.9892    12.1236    -3.8710 C.3     
  35 C35            3.2125    10.6165    -4.0103 C.3     
  36 H36           -0.6705     1.8093    -0.2412 H       
  37 H37           -0.4468     1.5638     1.5140 H       
  38 H38            1.9652    -1.2004     0.5007 H       
  39 H39            1.8458    -0.2697    -1.0239 H       
  40 H40            2.4747     0.7681     1.7936 H       
  41 H41            3.3224     1.1313     0.2529 H       
  42 H42            2.6029     3.0799    -0.9995 H       
  43 H43            1.4924     1.8699    -1.6862 H       
  44 H44            0.8050     4.2564    -2.1618 H       
  45 H45           -0.4288     3.3255    -1.2733 H       
  46 H46            0.6316     5.0922     1.9490 H       
  47 H47           -0.5415     3.8685     1.3970 H       
  48 H48            1.3156     2.7207     2.4987 H       
  49 H49            2.4979     3.5853     1.4870 H       
  50 H50           -3.7654    -0.5231    -1.8771 H       
  51 H51           -0.2725    -2.1824    -3.6846 H       
  52 H52            1.0927    -1.3695    -1.8044 H       
  53 H53            2.8310     5.8360    -1.1249 H       
  54 H54            3.1708     8.1867    -1.5897 H       
  55 H55            2.1092    12.0107    -1.1747 H       
  56 H56            3.1937    10.6155    -1.3887 H       
  57 H57            1.0515    11.0288    -3.5306 H       
  58 H58            2.5838    12.6541    -4.7326 H       
  59 H59            3.7020    12.6843    -3.2662 H       
  60 H60            4.0722    10.1855    -3.4971 H       
  61 H61            2.9540    10.1553    -4.9635 H       
@<TRIPOS>BOND
   1    1    2 1
   2    1    5 1
   3    1   36 1
   4    1   37 1
   5    2    3 1
   6    2   11 1
   7    3    4 1
   8    3   38 1
   9    3   39 1
  10    4    5 1
  11    4   40 1
  12    4   41 1
  13    5    6 1
  14    5   10 1
  15    6    7 1
  16    6   42 1
  17    6   43 1
  18    7    8 1
  19    7   44 1
  20    7   45 1
  21    8    9 1
  22    8   21 1
  23    9   10 1
  24    9   46 1
  25    9   47 1
  26   10   48 1
  27   10   49 1
  28   11   12 ar
  29   11   16 ar
  30   12   13 ar
  31   12   18 1
  32   13   14 ar
  33   13   50 1
  34   14   15 ar
  35   14   17 1
  36   15   16 ar
  37   15   51 1
  38   16   52 1
  39   19   20 1
  40   19   24 1
  41   19   26 2
  42   20   21 2
  43   20   28 1
  44   21   22 1
  45   22   23 2
  46   22   53 1
  47   23   24 1
  48   23   54 1
  49   24   27 1
  50   25   26 1
  51   25   27 2
  52   27   32 1
  53   28   29 1
  54   28   30 1
  55   28   31 1
  56   32   33 1
  57   32   55 1
  58   32   56 1
  59   33   34 1
  60   33   35 1
  61   33   57 1
  62   34   35 1
  63   34   58 1
  64   34   59 1
  65   35   60 1
  66   35   61 1

#	End of record

