#	Name: ASD00960220
#	Creating user name:	WinNT
#	Creation time:	15. 06. 2019 18:53

#	Modifying user name:	WinNT
#	Modification time:	15. 06. 2019 18:53

#	Program:	/corina/corina34_cracker 3.40 0067  02.08.2006

@<TRIPOS>MOLECULE
ASD00960220
  38   41    0    0    0
SMALL
NO_CHARGES


@<TRIPOS>ATOM
   1 C1             0.1599     1.4645     0.6823 C.2     
   2 C2             0.2430     0.1057     0.9493 C.2     
   3 N3             1.3515     1.8799     0.1529 N.pl3   
   4 C4             2.1977     0.8062     0.0767 C.2     
   5 C5             1.5206    -0.3185     0.5722 C.2     
   6 N6             1.8134     3.1275    -0.2908 N.2     
   7 C7             3.0268     3.2458    -0.7635 C.2     
   8 N8             3.8571     2.2114    -0.8424 N.2     
   9 C9             3.4955     1.0031    -0.4438 C.2     
  10 N10            4.3781    -0.0554    -0.5364 N.pl3   
  11 C11            2.0555    -1.6895     0.6752 C.2     
  12 S12            1.2513    -3.1470     0.0985 S.3     
  13 C13            2.6116    -4.1154     0.6623 C.2     
  14 C14            3.5114    -3.2944     1.2104 C.2     
  15 N15            3.2020    -2.0168     1.2026 N.2     
  16 C16           -1.0087     2.3107     0.9209 C.2     
  17 O17           -2.0214     1.8302     1.3937 O.2     
  18 O18           -0.9637     3.6245     0.6167 O.3     
  19 C19           -2.1414     4.3912     0.8761 C.3     
  20 C20           -1.9056     5.8250     0.4763 C.ar    
  21 C21           -2.1974     6.2411    -0.8092 C.ar    
  22 C22           -1.9810     7.5562    -1.1759 C.ar    
  23 C23           -1.4733     8.4554    -0.2569 C.ar    
  24 C24           -1.1823     8.0395     1.0290 C.ar    
  25 C25           -1.4028     6.7254     1.3969 C.ar    
  26 H26           -0.5363    -0.5113     1.3717 H       
  27 H27            3.3646     4.2146    -1.1007 H       
  28 H28            5.3049     0.1052    -0.7737 H       
  29 H29            4.0713    -0.9593    -0.3641 H       
  30 H30            2.7019    -5.1884     0.5792 H       
  31 H31            4.4379    -3.6574     1.6304 H       
  32 H32           -2.9732     3.9856     0.3001 H       
  33 H33           -2.3785     4.3446     1.9389 H       
  34 H34           -2.5941     5.5386    -1.5272 H       
  35 H35           -2.2083     7.8811    -2.1804 H       
  36 H36           -1.3036     9.4827    -0.5435 H       
  37 H37           -0.7853     8.7420     1.7469 H       
  38 H38           -1.1790     6.4013     2.4025 H       
@<TRIPOS>BOND
   1    1    2 2
   2    1    3 1
   3    1   16 1
   4    2    5 1
   5    2   26 1
   6    3    4 1
   7    3    6 1
   8    4    5 2
   9    4    9 1
  10    5   11 1
  11    6    7 2
  12    7    8 1
  13    7   27 1
  14    8    9 2
  15    9   10 1
  16   10   28 1
  17   10   29 1
  18   11   12 1
  19   11   15 2
  20   12   13 1
  21   13   14 2
  22   13   30 1
  23   14   15 1
  24   14   31 1
  25   16   17 2
  26   16   18 1
  27   18   19 1
  28   19   20 1
  29   19   32 1
  30   19   33 1
  31   20   21 ar
  32   20   25 ar
  33   21   22 ar
  34   21   34 1
  35   22   23 ar
  36   22   35 1
  37   23   24 ar
  38   23   36 1
  39   24   25 ar
  40   24   37 1
  41   25   38 1

#	End of record

