#	Name: ASD01882347
#	Creating user name:	WinNT
#	Creation time:	15. 06. 2019 19:44

#	Modifying user name:	WinNT
#	Modification time:	15. 06. 2019 19:44

#	Program:	/corina/corina34_cracker 3.40 0067  02.08.2006

@<TRIPOS>MOLECULE
ASD01882347
  52   55    0    0    0
SMALL
NO_CHARGES


@<TRIPOS>ATOM
   1 C1             1.6550     1.3970     1.0690 C.2     
   2 C2             1.7662    -0.0014     0.9876 C.2     
   3 C3             1.2585    -0.6481    -0.1064 C.2     
   4 C4             0.6346     0.0983    -1.1298 C.2     
   5 C5             0.5390     1.4386    -1.0311 C.2     
   6 N6             1.0419     2.0929     0.0555 N.pl3   
   7 N7             1.6947     3.4670     1.5806 N.2     
   8 N8             2.0295     2.2886     1.9739 N.2     
   9 C9             1.0915     3.4056     0.4228 C.2     
  10 C10            2.4364    -0.7792     2.0908 C.3     
  11 F11            3.7866    -0.9658     1.7759 F       
  12 F12            2.3314    -0.0695     3.2919 F       
  13 F13            1.8132    -2.0241     2.2287 F       
  14 N14            1.3570    -2.0324    -0.2098 N.pl3   
  15 C15            2.6677    -2.6812    -0.3502 C.3     
  16 C16            2.6392    -3.5883    -1.5843 C.3     
  17 C17            1.4646    -4.5627    -1.4693 C.3     
  18 C18            0.1519    -3.7778    -1.4163 C.3     
  19 C19            0.1526    -2.8732    -0.1746 C.3     
  20 C20            1.4536    -5.4793    -2.6654 C.ar    
  21 C21            1.5688    -6.8456    -2.4903 C.ar    
  22 C22            1.5588    -7.6864    -3.5875 C.ar    
  23 C23            1.4331    -7.1608    -4.8598 C.ar    
  24 C24            1.3169    -5.7946    -5.0349 C.ar    
  25 C25            1.3226    -4.9541    -3.9374 C.ar    
  26 C26            0.5482     4.5718    -0.3619 C.3     
  27 O27           -0.8090     4.8098     0.0168 O.3     
  28 C28           -1.4219     5.9012    -0.6726 C.3     
  29 C29           -2.8649     6.0632    -0.1903 C.3     
  30 H30            0.2327    -0.4072    -1.9954 H       
  31 H31            0.0602     2.0003    -1.8195 H       
  32 H32            3.4401    -1.9219    -0.4726 H       
  33 H33            2.8768    -3.2783     0.5374 H       
  34 H34            2.5204    -2.9796    -2.4807 H       
  35 H35            3.5721    -4.1488    -1.6456 H       
  36 H36            1.5711    -5.1540    -0.5598 H       
  37 H37            0.0565    -3.1673    -2.3142 H       
  38 H38           -0.6856    -4.4731    -1.3579 H       
  39 H39            0.1608    -3.4856     0.7271 H       
  40 H40           -0.7350    -2.2406    -0.1811 H       
  41 H41            1.6670    -7.2562    -1.4962 H       
  42 H42            1.6495    -8.7538    -3.4507 H       
  43 H43            1.4259    -7.8177    -5.7171 H       
  44 H44            1.2191    -5.3839    -6.0290 H       
  45 H45            1.2282    -3.8870    -4.0740 H       
  46 H46            1.1448     5.4598    -0.1531 H       
  47 H47            0.5938     4.3456    -1.4273 H       
  48 H48           -0.8662     6.8168    -0.4702 H       
  49 H49           -1.4172     5.7027    -1.7443 H       
  50 H50           -3.4206     5.1476    -0.3927 H       
  51 H51           -2.8696     6.2618     0.8814 H       
  52 H52           -3.3324     6.8957    -0.7161 H       
@<TRIPOS>BOND
   1    1    2 1
   2    1    6 1
   3    1    8 2
   4    2    3 2
   5    2   10 1
   6    3    4 1
   7    3   14 1
   8    4    5 2
   9    4   30 1
  10    5    6 1
  11    5   31 1
  12    6    9 1
  13    7    8 1
  14    7    9 2
  15    9   26 1
  16   10   11 1
  17   10   12 1
  18   10   13 1
  19   14   15 1
  20   14   19 1
  21   15   16 1
  22   15   32 1
  23   15   33 1
  24   16   17 1
  25   16   34 1
  26   16   35 1
  27   17   18 1
  28   17   20 1
  29   17   36 1
  30   18   19 1
  31   18   37 1
  32   18   38 1
  33   19   39 1
  34   19   40 1
  35   20   21 ar
  36   20   25 ar
  37   21   22 ar
  38   21   41 1
  39   22   23 ar
  40   22   42 1
  41   23   24 ar
  42   23   43 1
  43   24   25 ar
  44   24   44 1
  45   25   45 1
  46   26   27 1
  47   26   46 1
  48   26   47 1
  49   27   28 1
  50   28   29 1
  51   28   48 1
  52   28   49 1
  53   29   50 1
  54   29   51 1
  55   29   52 1

#	End of record

