#	Name: ASD01810336
#	Creating user name:	WinNT
#	Creation time:	15. 06. 2019 19:24

#	Modifying user name:	WinNT
#	Modification time:	15. 06. 2019 19:24

#	Program:	/corina/corina34_cracker 3.40 0067  02.08.2006

@<TRIPOS>MOLECULE
ASD01810336
  53   53    0    0    0
SMALL
NO_CHARGES


@<TRIPOS>ATOM
   1 C1             0.4214     2.9460     0.4771 C.3     
   2 C2             0.1524     1.4416     0.4028 C.3     
   3 O3             0.8009     0.7782     1.5198 O.3     
   4 C4             0.6608    -0.5583     1.6020 C.2     
   5 O5             0.0143    -1.1541     0.7632 O.2     
   6 N6             1.2377    -1.2354     2.6145 N.am    
   7 C7             1.0938    -2.6939     2.7176 C.3     
   8 C8             0.5598    -3.0394     4.1113 C.3     
   9 C9             1.4747    -2.4216     5.1713 C.3     
  10 C10            1.4785    -0.8988     5.0193 C.3     
  11 C11            2.0275    -0.5297     3.6328 C.3     
  12 N12            0.9843    -2.7787     6.5092 N.3     
  13 C13            2.0727    -2.7445     7.4952 C.3     
  14 C14            1.5246    -3.1211     8.8731 C.3     
  15 N15            2.6100    -3.0870     9.8564 N.am    
  16 C16            2.3600    -3.3857    11.1467 C.2     
  17 O17            1.2340    -3.6833    11.4945 O.2     
  18 C18            3.4554    -3.3513    12.1391 C.ar    
  19 C19            4.7197    -2.8884    11.7716 C.ar    
  20 C20            5.7375    -2.8585    12.7027 C.ar    
  21 C21            5.5070    -3.2864    13.9979 C.ar    
  22 C22            4.2557    -3.7466    14.3688 C.ar    
  23 C23            3.2280    -3.7763    13.4492 C.ar    
  24 C24            1.8659    -4.2773    13.8549 C.3     
  25 H25            1.4955     3.1256     0.4325 H       
  26 H26           -0.0655     3.4439    -0.3614 H       
  27 H27            0.0257     3.3400     1.4132 H       
  28 H28           -0.9218     1.2619     0.4475 H       
  29 H29            0.5481     1.0476    -0.5333 H       
  30 H30            0.3935    -3.0464     1.9603 H       
  31 H31            2.0640    -3.1682     2.5701 H       
  32 H32           -0.4484    -2.6407     4.2238 H       
  33 H33            0.5393    -4.1222     4.2349 H       
  34 H34            2.4880    -2.8019     5.0426 H       
  35 H35            0.4617    -0.5202     5.1232 H       
  36 H36            2.1118    -0.4579     5.7892 H       
  37 H37            3.0737    -0.8278     3.5628 H       
  38 H38            1.9409     0.5460     3.4800 H       
  39 H39            0.2244    -2.1765     6.7884 H       
  40 H40            2.8475    -3.4545     7.2059 H       
  41 H41            2.4960    -1.7408     7.5345 H       
  42 H42            0.7498    -2.4111     9.1624 H       
  43 H43            1.1013    -4.1248     8.8338 H       
  44 H44            3.5086    -2.8495     9.5789 H       
  45 H45            4.9011    -2.5547    10.7606 H       
  46 H46            6.7163    -2.5005    12.4197 H       
  47 H47            6.3072    -3.2616    14.7227 H       
  48 H48            4.0823    -4.0793    15.3815 H       
  49 H49            1.2282    -3.4306    14.1090 H       
  50 H50            1.4215    -4.8316    13.0282 H       
  51 H51            1.9627    -4.9320    14.7209 H       
  52 Cl52          11.7163     8.4439    20.3815 Cl      
  53 H53           11.7163     9.8139    20.3815 H       
@<TRIPOS>BOND
   1    1    2 1
   2    1   25 1
   3    1   26 1
   4    1   27 1
   5    2    3 1
   6    2   28 1
   7    2   29 1
   8    3    4 1
   9    4    5 2
  10    4    6 am
  11    6    7 1
  12    6   11 1
  13    7    8 1
  14    7   30 1
  15    7   31 1
  16    8    9 1
  17    8   32 1
  18    8   33 1
  19    9   10 1
  20    9   12 1
  21    9   34 1
  22   10   11 1
  23   10   35 1
  24   10   36 1
  25   11   37 1
  26   11   38 1
  27   12   13 1
  28   12   39 1
  29   13   14 1
  30   13   40 1
  31   13   41 1
  32   14   15 1
  33   14   42 1
  34   14   43 1
  35   15   16 am
  36   15   44 1
  37   16   17 2
  38   16   18 1
  39   18   19 ar
  40   18   23 ar
  41   19   20 ar
  42   19   45 1
  43   20   21 ar
  44   20   46 1
  45   21   22 ar
  46   21   47 1
  47   22   23 ar
  48   22   48 1
  49   23   24 1
  50   24   49 1
  51   24   50 1
  52   24   51 1
  53   52   53 1

#	End of record

