#	Name: ASD01917914
#	Creating user name:	WinNT
#	Creation time:	15. 06. 2019 20:10

#	Modifying user name:	WinNT
#	Modification time:	15. 06. 2019 20:10

#	Program:	/corina/corina34_cracker 3.40 0067  02.08.2006

@<TRIPOS>MOLECULE
ASD01917914
  40   43    0    0    0
SMALL
NO_CHARGES


@<TRIPOS>ATOM
   1 C1            -0.0638     1.2381     0.7342 C.2     
   2 C2            -0.0570    -0.0977     0.5932 C.2     
   3 C3            -1.4559    -0.5772     0.2980 C.3     
   4 N4            -2.3292     0.6021     0.2711 N.am    
   5 C5            -1.4666     1.7567     0.5494 C.3     
   6 O6             1.2029     1.6234     0.9966 O.3     
   7 C7             1.9698     0.5179     1.0130 C.2     
   8 N8             1.2045    -0.5239     0.7683 N.2     
   9 C9             3.4136     0.4806     1.2614 C.2     
  10 C10           -3.6571     0.6208     0.0410 C.2     
  11 O11           -4.2345    -0.4028    -0.2700 O.2     
  12 C12           -4.4108     1.8850     0.1668 C.ar    
  13 C13           -3.7324     3.0874     0.3772 C.ar    
  14 C14           -4.4406     4.2641     0.4939 C.ar    
  15 C15           -5.8241     4.2555     0.4027 C.ar    
  16 C16           -6.5028     3.0645     0.1943 C.ar    
  17 C17           -5.8040     1.8829     0.0700 C.ar    
  18 F18           -6.5134     5.4117     0.5178 F       
  19 C19            4.0685    -0.6961     1.2507 C.2     
  20 C20            5.5193    -0.7335     1.5003 C.ar    
  21 C21            6.2027    -1.9531     1.4900 C.ar    
  22 C22            7.5613    -1.9801     1.7247 C.ar    
  23 C23            8.2482    -0.8040     1.9700 C.ar    
  24 C24            7.5787     0.4071     1.9818 C.ar    
  25 C25            6.2212     0.4509     1.7432 C.ar    
  26 H26           -1.4792    -1.0772    -0.6702 H       
  27 H27           -1.7844    -1.2633     1.0787 H       
  28 H28           -1.7972     2.2616     1.4571 H       
  29 H29           -1.4979     2.4478    -0.2929 H       
  30 H30            3.9523     1.3968     1.4531 H       
  31 H31           -2.6548     3.0952     0.4488 H       
  32 H32           -3.9169     5.1945     0.6570 H       
  33 H33           -7.5805     3.0633     0.1244 H       
  34 H34           -6.3335     0.9558    -0.0927 H       
  35 H35            3.5297    -1.6122     1.0590 H       
  36 H36            5.6679    -2.8718     1.2991 H       
  37 H37            8.0906    -2.9215     1.7174 H       
  38 H38            9.3122    -0.8315     2.1534 H       
  39 H39            8.1215     1.3208     2.1740 H       
  40 H40            5.7001     1.3968     1.7524 H       
@<TRIPOS>BOND
   1    1    2 2
   2    1    6 1
   3    1    5 1
   4    2    3 1
   5    2    8 1
   6    3    4 1
   7    3   26 1
   8    3   27 1
   9    4    5 1
  10    4   10 am
  11    5   28 1
  12    5   29 1
  13    6    7 1
  14    7    8 2
  15    7    9 1
  16    9   19 2
  17    9   30 1
  18   10   11 2
  19   10   12 1
  20   12   13 ar
  21   12   17 ar
  22   13   14 ar
  23   13   31 1
  24   14   15 ar
  25   14   32 1
  26   15   16 ar
  27   15   18 1
  28   16   17 ar
  29   16   33 1
  30   17   34 1
  31   19   20 1
  32   19   35 1
  33   20   21 ar
  34   20   25 ar
  35   21   22 ar
  36   21   36 1
  37   22   23 ar
  38   22   37 1
  39   23   24 ar
  40   23   38 1
  41   24   25 ar
  42   24   39 1
  43   25   40 1

#	End of record

