#	Name: ASD03180093
#	Creating user name:	WinNT
#	Creation time:	15. 06. 2019 20:33

#	Modifying user name:	WinNT
#	Modification time:	15. 06. 2019 20:33

#	Program:	/corina/corina34_cracker 3.40 0067  02.08.2006

@<TRIPOS>MOLECULE
ASD03180093
  38   40    0    0    0
SMALL
NO_CHARGES


@<TRIPOS>ATOM
   1 C1            -0.0146     1.3827    -0.0386 C.ar    
   2 C2            -1.1770    -0.7083    -0.2052 C.ar    
   3 C3            -2.3857    -0.0414    -0.1189 C.ar    
   4 C4            -2.4120     1.3363    -0.0041 C.ar    
   5 C5            -1.2302     2.0497     0.0421 C.ar    
   6 C6             0.0080    -0.0007    -0.1655 C.ar    
   7 C7            -1.2597     3.5501     0.1803 C.3     
   8 N8             1.1831     2.1020     0.0021 N.pl3   
   9 C9             2.3883     1.4325     0.0912 C.2     
  10 N10            2.5319     0.1416     0.2738 N.2     
  11 O11            3.6037     1.9967    -0.0007 O.3     
  12 C12            4.5253     1.0138     0.1366 C.2     
  13 C13            3.8426    -0.1482     0.3086 C.2     
  14 C14           -1.1674     4.1918    -1.2056 C.3     
  15 C15            5.9884     1.1735     0.1017 C.2     
  16 S16            7.1782    -0.1138     0.2805 S.3     
  17 C17            8.4460     1.0194     0.1048 C.2     
  18 N18            7.9688     2.2065    -0.0649 N.2     
  19 C19            6.6601     2.3345    -0.0793 C.2     
  20 C20            5.9686     3.6589    -0.2759 C.3     
  21 C21            9.9138     0.6802     0.1436 C.3     
  22 H22           -1.1599    -1.7844    -0.2948 H       
  23 H23           -3.3111    -0.5972    -0.1506 H       
  24 H24           -3.3575     1.8540     0.0627 H       
  25 H25            0.9515    -0.5220    -0.2333 H       
  26 H26           -2.1908     3.8526     0.6595 H       
  27 H27           -0.4157     3.8756     0.7884 H       
  28 H28            1.1681     3.0713    -0.0324 H       
  29 H29            4.2757    -1.1280     0.4456 H       
  30 H30           -2.0114     3.8663    -1.8136 H       
  31 H31           -1.1887     5.2770    -1.1056 H       
  32 H32           -0.2363     3.8893    -1.6847 H       
  33 H33            5.8087     4.1326     0.6927 H       
  34 H34            6.5892     4.3040    -0.8978 H       
  35 H35            5.0077     3.4981    -0.7647 H       
  36 H36           10.2601     0.4493    -0.8638 H       
  37 H37           10.4730     1.5304     0.5341 H       
  38 H38           10.0700    -0.1845     0.7886 H       
@<TRIPOS>BOND
   1    1    6 ar
   2    1    8 1
   3    1    5 ar
   4    2    3 ar
   5    2    6 ar
   6    2   22 1
   7    3    4 ar
   8    3   23 1
   9    4    5 ar
  10    4   24 1
  11    5    7 1
  12    6   25 1
  13    7   14 1
  14    7   26 1
  15    7   27 1
  16    8    9 1
  17    8   28 1
  18    9   11 1
  19    9   10 2
  20   10   13 1
  21   11   12 1
  22   12   13 2
  23   12   15 1
  24   13   29 1
  25   14   30 1
  26   14   31 1
  27   14   32 1
  28   15   16 1
  29   15   19 2
  30   16   17 1
  31   17   18 2
  32   17   21 1
  33   18   19 1
  34   19   20 1
  35   20   33 1
  36   20   34 1
  37   20   35 1
  38   21   36 1
  39   21   37 1
  40   21   38 1

#	End of record

