#	Name: ASD02198024
#	Creating user name:	WinNT
#	Creation time:	15. 06. 2019 20:18

#	Modifying user name:	WinNT
#	Modification time:	15. 06. 2019 20:18

#	Program:	/corina/corina34_cracker 3.40 0067  02.08.2006

@<TRIPOS>MOLECULE
ASD02198024
  36   38    0    0    0
SMALL
NO_CHARGES


@<TRIPOS>ATOM
   1 N1            -0.0312     1.4603     0.3525 N.pl3   
   2 C2             0.1156     0.0990     0.2169 C.2     
   3 C3            -0.9243    -0.8063     0.2435 C.2     
   4 C4            -2.2918    -0.4193     0.4185 C.1     
   5 S5             1.6069    -0.6945    -0.0139 S.3     
   6 C6             0.8344    -2.2708    -0.0703 C.2     
   7 C7            -0.5245    -2.1313     0.0844 C.2     
   8 C8             1.5065    -3.4950    -0.2510 C.2     
   9 O9             0.8899    -4.5449    -0.1834 O.2     
  10 C10            2.9603    -3.5074    -0.5229 C.ar    
  11 N11           -1.4069    -3.2004     0.0837 N.pl3   
  12 C12            1.0979     2.2788     0.4501 C.ar    
  13 C13            1.0975     3.5379    -0.1368 C.ar    
  14 N14           -3.3767    -0.1122     0.5573 N.1     
  15 C15            2.2140     4.3445    -0.0384 C.ar    
  16 C16            3.3329     3.8994     0.6436 C.ar    
  17 C17            3.3362     2.6456     1.2293 C.ar    
  18 C18            2.2203     1.8369     1.1390 C.ar    
  19 C19            3.8693    -3.2750     0.5119 C.ar    
  20 Cl20           4.7352     4.9157     0.7643 Cl      
  21 C21            5.2253    -3.2884     0.2512 C.ar    
  22 C22            5.6834    -3.5315    -1.0323 C.ar    
  23 C23            4.7859    -3.7622    -2.0624 C.ar    
  24 C24            3.4299    -3.7571    -1.8138 C.ar    
  25 Cl25           3.2958    -2.9695     2.1217 Cl      
  26 Cl26           7.3895    -3.5469    -1.3527 Cl      
  27 H27           -0.9180     1.8525     0.3764 H       
  28 H28           -1.0736    -4.1043    -0.0300 H       
  29 H29           -2.3576    -3.0447     0.1970 H       
  30 H30            0.2248     3.8855    -0.6698 H       
  31 H31            2.2142     5.3235    -0.4945 H       
  32 H32            4.2108     2.3006     1.7607 H       
  33 H33            2.2233     0.8587     1.5965 H       
  34 H34            5.9297    -3.1086     1.0499 H       
  35 H35            5.1496    -3.9505    -3.0617 H       
  36 H36            2.7318    -3.9374    -2.6179 H       
@<TRIPOS>BOND
   1    1    2 1
   2    1   12 1
   3    1   27 1
   4    2    3 2
   5    2    5 1
   6    3    4 1
   7    3    7 1
   8    4   14 3
   9    5    6 1
  10    6    7 2
  11    6    8 1
  12    7   11 1
  13    8    9 2
  14    8   10 1
  15   10   19 ar
  16   10   24 ar
  17   11   28 1
  18   11   29 1
  19   12   13 ar
  20   12   18 ar
  21   13   15 ar
  22   13   30 1
  23   15   16 ar
  24   15   31 1
  25   16   17 ar
  26   16   20 1
  27   17   18 ar
  28   17   32 1
  29   18   33 1
  30   19   21 ar
  31   19   25 1
  32   21   22 ar
  33   21   34 1
  34   22   23 ar
  35   22   26 1
  36   23   24 ar
  37   23   35 1
  38   24   36 1

#	End of record

