#	Name: ASD06590075
#	Creating user name:	WinNT
#	Creation time:	15. 06. 2019 21:06

#	Modifying user name:	WinNT
#	Modification time:	15. 06. 2019 21:06

#	Program:	/corina/corina34_cracker 3.40 0067  02.08.2006

@<TRIPOS>MOLECULE
ASD06590075
 313  313    0    0    0
SMALL
NO_CHARGES


@<TRIPOS>ATOM
   1 C1             0.3007     1.8767    -3.8293 C.2     
   2 O2             0.1869     0.8181    -4.4103 O.2     
   3 N3             2.5597     1.9322    -4.7141 N.am    
   4 C4             1.5267     2.7263    -4.0443 C.3     
   5 C5             1.1656     3.9317    -4.9147 C.3     
   6 C6             2.4035     4.8097    -5.1087 C.3     
   7 O7             0.6994     3.4779    -6.1870 O.3     
   8 C8            -3.0904     2.4833    -3.0660 C.2     
   9 O9            -2.8938     3.6653    -3.2535 O.2     
  10 N10           -0.6720     2.2958    -2.9958 N.am    
  11 C11           -1.9249     1.5434    -2.8951 C.3     
  12 C12           -2.0079     0.8724    -1.5226 C.3     
  13 C13           -0.8716    -0.1060    -1.3722 C.2     
  14 O14           -0.0495    -0.2211    -2.2564 O.2     
  15 N15           -0.7690    -0.8531    -0.2552 N.am    
  16 C16           -6.6986     2.3476    -2.4954 C.2     
  17 O17           -6.6249     1.2787    -1.9271 O.2     
  18 N18           -4.3513     2.0104    -3.0105 N.am    
  19 C19           -5.4843     2.9241    -3.1767 C.3     
  20 C20           -5.7756     3.1094    -4.6673 C.3     
  21 C21          -10.2126     3.3993    -2.0265 C.2     
  22 O22          -10.0711     4.4352    -2.6410 O.2     
  23 N23           -7.8666     3.0198    -2.5178 N.am    
  24 C24           -9.0471     2.4594    -1.8555 C.3     
  25 C25          -13.5302     3.7901    -0.5420 C.2     
  26 O26          -13.3077     2.9576     0.3114 O.2     
  27 N27          -11.4122     3.0886    -1.4964 N.am    
  28 C28          -12.5452     4.0023    -1.6626 C.3     
  29 C29          -13.2302     3.7269    -3.0027 C.3     
  30 C30          -12.2691     4.0619    -4.1451 C.3     
  31 C31          -12.9541     3.7865    -5.4852 C.3     
  32 N32          -12.0338     4.1073    -6.5790 N.pl3   
  33 C33          -12.4318     3.9383    -7.8841 C.2     
  34 N34          -11.6130     4.2237    -8.8573 N.2     
  35 N35          -13.6934     3.4683    -8.1626 N.pl3   
  36 C36          -16.9883     4.7508     0.1522 C.2     
  37 O37          -17.1504     5.1878    -0.9674 O.2     
  38 N38          -14.6584     4.5254    -0.4882 N.am    
  39 C39          -15.6160     4.3191     0.6012 C.3     
  40 C40          -15.1927     5.1474     1.8159 C.3     
  41 O41          -15.2767     6.5379     1.4970 O.3     
  42 C42          -20.1960     5.4474     1.7611 C.2     
  43 O43          -19.7179     5.3725     2.8732 O.2     
  44 N44          -18.0353     4.6513     0.9950 N.am    
  45 C45          -19.3693     5.0710     0.5586 C.3     
  46 C46          -20.0478     3.9198    -0.1866 C.3     
  47 C47          -23.7327     6.0694     2.4452 C.2     
  48 O48          -24.0809     5.8661     1.3014 O.2     
  49 N49          -21.4666     5.8673     1.6007 N.am    
  50 C50          -22.2702     6.2332     2.7697 C.3     
  51 C51          -21.9911     7.6901     3.1447 C.3     
  52 C52          -20.5021     7.8612     3.4523 C.3     
  53 O53          -22.3531     8.5402     2.0547 O.3     
  54 C54          -26.8845     6.7520     4.1665 C.2     
  55 O55          -26.3231     7.2787     5.1037 O.2     
  56 N56          -24.6536     6.1488     3.4260 N.am    
  57 C57          -26.0791     6.0528     3.1019 C.3     
  58 C58          -26.4892     4.5802     3.0369 C.3     
  59 C59          -25.7631     3.8994     1.8749 C.3     
  60 C60          -26.1732     2.4268     1.8099 C.3     
  61 N61          -25.4780     1.7750     0.6972 N.pl3   
  62 C62          -25.6901     0.4409     0.4412 C.2     
  63 N63          -26.5097    -0.2438     1.1884 N.2     
  64 N64          -25.0376    -0.1708    -0.6029 N.pl3   
  65 C65          -30.4017     6.8910     5.1530 C.2     
  66 O66          -30.7081     5.9973     4.3926 O.2     
  67 N67          -28.2287     6.7920     4.0771 N.am    
  68 C68          -29.0117     7.4718     5.1121 C.3     
  69 C69          -29.0925     8.9657     4.7917 C.3     
  70 C70          -27.6940     9.5810     4.8727 C.3     
  71 C71          -27.7735    11.0524     4.5571 C.2     
  72 O72          -28.8433    11.5591     4.2934 O.2     
  73 N73          -26.6557    11.8053     4.5680 N.am    
  74 C74          -33.6104     7.8215     6.6368 C.2     
  75 O75          -33.2023     8.9135     6.9714 O.2     
  76 N76          -31.3043     7.3648     6.0346 N.am    
  77 C77          -32.6556     6.8001     6.0744 C.3     
  78 C78          -32.6615     5.5536     6.9616 C.3     
  79 C79          -31.7887     4.4702     6.3247 C.3     
  80 C80          -31.7946     3.2424     7.1985 C.2     
  81 O81          -32.4339     3.2346     8.2291 O.2     
  82 N82          -31.0894     2.1530     6.8347 N.am    
  83 C83          -37.0322     7.8115     7.9229 C.2     
  84 O84          -37.0960     6.6005     7.9019 O.2     
  85 N85          -34.9177     7.5214     6.7679 N.am    
  86 C86          -35.8460     8.5142     7.3146 C.3     
  87 C87          -36.3215     9.4398     6.1930 C.3     
  88 C88          -35.1532    10.2332     5.6672 C.ar    
  89 C89          -34.3959     9.7366     4.6224 C.ar    
  90 C90          -33.3241    10.4618     4.1389 C.ar    
  91 C91          -33.0083    11.6897     4.7022 C.ar    
  92 O92          -31.9547    12.4053     4.2281 O.3     
  93 C93          -33.7700    12.1860     5.7501 C.ar    
  94 C94          -34.8439    11.4593     6.2266 C.ar    
  95 C95          -40.3629     8.7734     9.0824 C.2     
  96 O96          -40.2564     9.8949     8.6332 O.2     
  97 N97          -38.0222     8.5287     8.4903 N.am    
  98 C98          -39.1754     7.8455     9.0817 C.3     
  99 C99          -38.8452     7.4387    10.5192 C.3     
 100 C100         -37.7209     6.4010    10.5100 C.3     
 101 C101         -37.3906     5.9941    11.9475 C.3     
 102 N102         -36.3141     5.0005    11.9387 N.pl3   
 103 C103         -35.8458     4.4840    13.1236 C.2     
 104 N104         -36.3595     4.8783    14.2548 N.2     
 105 N105         -34.8355     3.5515    13.1154 N.pl3   
 106 C106         -43.6513     8.8534    10.6770 C.2     
 107 O107         -43.3923     7.9043    11.3863 O.2     
 108 N108         -41.5432     8.3569     9.5823 N.am    
 109 C109         -42.6976     9.2590     9.5830 C.3     
 110 C110         -43.4086     9.1783     8.2307 C.3     
 111 C111         -42.4817     9.7081     7.1347 C.3     
 112 C112         -43.1928     9.6274     5.7824 C.3     
 113 C113         -42.2659    10.1571     4.6864 C.3     
 114 N114         -42.9487    10.0797     3.3880 N.3     
 115 C115         -47.1101     9.6152    11.5824 C.2     
 116 O116         -47.3073    10.2162    10.5476 O.2     
 117 N117         -44.7921     9.5453    10.8673 N.am    
 118 C118         -45.7193     9.1510    11.9308 C.3     
 119 C119         -45.2836     9.7911    13.2504 C.3     
 120 C120         -43.9248     9.2251    13.6677 C.3     
 121 C121         -43.4313     9.9538    14.9192 C.3     
 122 C122         -44.0652     7.7317    13.9691 C.3     
 123 C123         -49.6652    11.2427    12.5260 C.2     
 124 O124         -48.7564    11.8245    13.0695 O.2     
 125 N125         -48.1346     9.3624    12.4208 N.am    
 126 C126         -49.4866     9.8137    12.0821 C.3     
 127 C127         -50.5127     8.9274    12.7910 C.3     
 128 C128         -50.4147     7.4999    12.2490 C.3     
 129 C129         -51.3517     6.5875    13.0429 C.3     
 130 C130         -50.8186     7.4859    10.7733 C.3     
 131 O131         -50.8339    11.8691    12.3176 O.3     
 132 C132           3.8593     2.2603    -4.5725 C.2     
 133 O133           4.1735     3.2128    -3.8907 O.2     
 134 C134          22.1231    -0.2987    -7.9001 C.3     
 135 C135          21.0442     0.5306    -7.2006 C.3     
 136 C136          19.6658    -0.0498    -7.5231 C.3     
 137 C137          18.5869     0.7795    -6.8237 C.3     
 138 C138          17.2085     0.1991    -7.1462 C.3     
 139 C139          16.1296     1.0283    -6.4467 C.3     
 140 C140          14.7512     0.4480    -6.7692 C.3     
 141 C141          13.6723     1.2772    -6.0698 C.3     
 142 C142          12.2939     0.6968    -6.3923 C.3     
 143 C143          11.2150     1.5261    -5.6929 C.3     
 144 C144           9.8365     0.9457    -6.0154 C.3     
 145 C145           8.7577     1.7750    -5.3159 C.3     
 146 C146           7.3792     1.1946    -5.6384 C.3     
 147 C147           6.3004     2.0238    -4.9390 C.3     
 148 C148           4.9219     1.4435    -5.2615 C.3     
 149 H149           2.3084     1.1704    -5.2594 H       
 150 H150           1.9020     3.0728    -3.0814 H       
 151 H151           0.3822     4.5110    -4.4261 H       
 152 H152           3.1421     4.2705    -5.7018 H       
 153 H153           2.1212     5.7266    -5.6260 H       
 154 H154           2.8292     5.0575    -4.1363 H       
 155 H155          -0.0851     2.9145    -6.1403 H       
 156 H156          -0.5423     3.0957    -2.4626 H       
 157 H157          -1.9550     0.7818    -3.6743 H       
 158 H158          -1.9400     1.6308    -0.7426 H       
 159 H159          -2.9569     0.3436    -1.4335 H       
 160 H160          -1.4265    -0.7610     0.4520 H       
 161 H161          -0.0376    -1.4829    -0.1584 H       
 162 H162          -4.5085     1.0650    -2.8606 H       
 163 H163          -5.2415     3.8888    -2.7313 H       
 164 H164          -6.0185     2.1447    -5.1127 H       
 165 H165          -6.6186     3.7892    -4.7909 H       
 166 H166          -4.8973     3.5264    -5.1600 H       
 167 H167          -7.9256     3.8746    -2.9724 H       
 168 H168          -8.8395     2.3273    -0.7936 H       
 169 H169          -9.2899     1.4946    -2.3010 H       
 170 H170         -11.5253     2.2600    -1.0049 H       
 171 H171         -12.1878     5.0318    -1.6421 H       
 172 H172         -13.5086     2.6745    -3.0589 H       
 173 H173         -14.1244     4.3443    -3.0873 H       
 174 H174         -11.9907     5.1142    -4.0888 H       
 175 H175         -11.3748     3.4444    -4.0604 H       
 176 H176         -13.2325     2.7341    -5.5414 H       
 177 H177         -13.8483     4.4039    -5.5698 H       
 178 H178         -11.1437     4.4389    -6.3825 H       
 179 H179         -11.8938     4.1045    -9.7780 H       
 180 H180         -14.3027     3.2559    -7.4384 H       
 181 H181         -13.9742     3.3490    -9.0834 H       
 182 H182         -14.8364     5.1912    -1.1708 H       
 183 H183         -15.6374     3.2633     0.8710 H       
 184 H184         -15.8532     4.9264     2.6544 H       
 185 H185         -14.1666     4.8980     2.0861 H       
 186 H186         -15.0223     7.1239     2.2229 H       
 187 H187         -17.9056     4.3018     1.8905 H       
 188 H188         -19.2806     5.9312    -0.1050 H       
 189 H189         -21.0403     4.2320    -0.5113 H       
 190 H190         -19.4499     3.6475    -1.0564 H       
 191 H191         -20.1365     3.0596     0.4770 H       
 192 H192         -21.8490     5.9272     0.7113 H       
 193 H193         -22.0091     5.5861     3.6071 H       
 194 H194         -22.5768     7.9575     4.0242 H       
 195 H195         -19.9184     7.6339     2.5603 H       
 196 H196         -20.3104     8.8893     3.7598 H       
 197 H197         -20.2167     7.1824     4.2560 H       
 198 H198         -23.2854     8.4836     1.8045 H       
 199 H199         -24.3726     6.2696     4.3465 H       
 200 H200         -26.2649     6.5246     2.1371 H       
 201 H201         -26.2218     4.0870     3.9714 H       
 202 H202         -27.5661     4.5094     2.8839 H       
 203 H203         -26.0306     4.3927     0.9404 H       
 204 H204         -24.6862     3.9702     2.0279 H       
 205 H205         -25.9058     1.9336     2.7444 H       
 206 H206         -27.2501     2.3560     1.6569 H       
 207 H207         -24.8681     2.2845     0.1412 H       
 208 H208         -26.6593    -1.1850     1.0077 H       
 209 H209         -24.4277     0.3388    -1.1590 H       
 210 H210         -25.1873    -1.1120    -0.7836 H       
 211 H211         -28.6777     6.3708     3.3276 H       
 212 H212         -28.5314     7.3334     6.0807 H       
 213 H213         -29.4911     9.1007     3.7862 H       
 214 H214         -29.7476     9.4567     5.5112 H       
 215 H215         -27.2953     9.4460     5.8782 H       
 216 H216         -27.0388     9.0900     4.1531 H       
 217 H217         -25.8000    11.4001     4.7789 H       
 218 H218         -26.7068    12.7524     4.3649 H       
 219 H219         -31.0593     8.0796     6.6428 H       
 220 H220         -32.9661     6.5294     5.0653 H       
 221 H221         -32.2668     5.8061     7.9457 H       
 222 H222         -33.6822     5.1848     7.0631 H       
 223 H223         -32.1834     4.2177     5.3406 H       
 224 H224         -30.7681     4.8391     6.2232 H       
 225 H225         -30.5781     2.1593     6.0104 H       
 226 H226         -31.0932     1.3627     7.3971 H       
 227 H227         -35.2441     6.6480     6.5003 H       
 228 H228         -35.3398     9.1019     8.0805 H       
 229 H229         -36.7483     8.8436     5.3864 H       
 230 H230         -37.0786    10.1213     6.5808 H       
 231 H231         -34.6421     8.7807     4.1842 H       
 232 H232         -32.7324    10.0732     3.3233 H       
 233 H233         -32.1832    13.0147     3.5129 H       
 234 H234         -33.5259    13.1414     6.1905 H       
 235 H235         -35.4400    11.8473     7.0394 H       
 236 H236         -37.9712     9.4972     8.5072 H       
 237 H237         -39.4098     6.9559     8.4970 H       
 238 H238         -38.5250     8.3163    11.0807 H       
 239 H239         -39.7310     7.0105    10.9882 H       
 240 H240         -38.0411     5.5233     9.9485 H       
 241 H241         -36.8350     6.8292    10.0410 H       
 242 H242         -37.0705     6.8718    12.5090 H       
 243 H243         -38.2765     5.5660    12.4165 H       
 244 H244         -35.9318     4.7071    11.0969 H       
 245 H245         -36.0290     4.5139    15.0908 H       
 246 H246         -34.4532     3.2581    12.2736 H       
 247 H247         -34.5051     3.1871    13.9514 H       
 248 H248         -41.6284     7.4600     9.9415 H       
 249 H249         -42.3600    10.2809     9.7557 H       
 250 H250         -43.6676     8.1412     8.0176 H       
 251 H251         -44.3166     9.7807     8.2611 H       
 252 H252         -42.2228    10.7452     7.3478 H       
 253 H253         -41.5738     9.1057     7.1043 H       
 254 H254         -43.4518     8.5903     5.5693 H       
 255 H255         -44.1008    10.2297     5.8128 H       
 256 H256         -42.0069    11.1943     4.8995 H       
 257 H257         -41.3580     9.5548     4.6560 H       
 258 H258         -42.3566    10.4241     2.6471 H       
 259 H259         -43.2563     9.1380     3.1968 H       
 260 H260         -44.9993    10.3044    10.3000 H       
 261 H261         -45.7136     8.0659    12.0340 H       
 262 H262         -45.2036    10.8705    13.1217 H       
 263 H263         -46.0214     9.5709    14.0220 H       
 264 H264         -43.2083     9.3667    12.8585 H       
 265 H265         -44.1478     9.8122    15.7283 H       
 266 H266         -42.4632     9.5506    15.2164 H       
 267 H267         -43.3313    11.0178    14.7045 H       
 268 H268         -44.7817     7.5901    14.7782 H       
 269 H269         -44.4167     7.2125    13.0775 H       
 270 H270         -43.0971     7.3284    14.2663 H       
 271 H271         -47.9769     8.8818    13.2484 H       
 272 H272         -49.6324     9.7472    11.0039 H       
 273 H273         -50.3113     8.9238    13.8622 H       
 274 H274         -51.5149     9.3164    12.6110 H       
 275 H275         -49.3896     7.1431    12.3485 H       
 276 H276         -52.3768     6.9443    12.9434 H       
 277 H277         -51.2819     5.5706    12.6568 H       
 278 H278         -51.0639     6.5975    14.0942 H       
 279 H279         -50.1511     8.1360    10.2077 H       
 280 H280         -50.7488     6.4690    10.3872 H       
 281 H281         -51.8437     7.8428    10.6738 H       
 282 H282         -50.9010    12.7853    12.6197 H       
 283 H283          23.1051     0.1148    -7.6703 H       
 284 H284          22.0723    -1.3299    -7.5507 H       
 285 H285          21.9605    -0.2717    -8.9776 H       
 286 H286          21.2068     0.5036    -6.1232 H       
 287 H287          21.0951     1.5618    -7.5501 H       
 288 H288          19.5032    -0.0228    -8.6006 H       
 289 H289          19.6149    -1.0810    -7.1737 H       
 290 H290          18.7495     0.7525    -5.7462 H       
 291 H291          18.6377     1.8107    -7.1731 H       
 292 H292          17.0459     0.2261    -8.2237 H       
 293 H293          17.1576    -0.8321    -6.7968 H       
 294 H294          16.2921     1.0014    -5.3693 H       
 295 H295          16.1804     2.0596    -6.7962 H       
 296 H296          14.5886     0.4749    -7.8467 H       
 297 H297          14.7003    -0.5833    -6.4198 H       
 298 H298          13.8348     1.2502    -4.9923 H       
 299 H299          13.7231     2.3084    -6.4192 H       
 300 H300          12.1313     0.7238    -7.4698 H       
 301 H301          12.2430    -0.3344    -6.0429 H       
 302 H302          11.3775     1.4991    -4.6154 H       
 303 H303          11.2658     2.5573    -6.0423 H       
 304 H304           9.6740     0.9727    -7.0928 H       
 305 H305           9.7857    -0.0855    -5.6659 H       
 306 H306           8.9202     1.7480    -4.2384 H       
 307 H307           8.8085     2.8062    -5.6653 H       
 308 H308           7.2167     1.2216    -6.7159 H       
 309 H309           7.3284     0.1634    -5.2890 H       
 310 H310           6.4629     1.9969    -3.8615 H       
 311 H311           6.3512     3.0551    -5.2884 H       
 312 H312           4.8711     0.4122    -4.9120 H       
 313 H313           4.7594     1.4704    -6.3389 H       
@<TRIPOS>BOND
   1    1    2 2
   2    1    4 1
   3    1   10 am
   4    3  132 am
   5    3    4 1
   6    3  149 1
   7    4    5 1
   8    4  150 1
   9    5    6 1
  10    5    7 1
  11    5  151 1
  12    6  152 1
  13    6  153 1
  14    6  154 1
  15    7  155 1
  16    8    9 2
  17    8   11 1
  18    8   18 am
  19   10   11 1
  20   10  156 1
  21   11   12 1
  22   11  157 1
  23   12   13 1
  24   12  158 1
  25   12  159 1
  26   13   14 2
  27   13   15 am
  28   15  160 1
  29   15  161 1
  30   16   17 2
  31   16   19 1
  32   16   23 am
  33   18   19 1
  34   18  162 1
  35   19   20 1
  36   19  163 1
  37   20  164 1
  38   20  165 1
  39   20  166 1
  40   21   22 2
  41   21   24 1
  42   21   27 am
  43   23   24 1
  44   23  167 1
  45   24  168 1
  46   24  169 1
  47   25   26 2
  48   25   28 1
  49   25   38 am
  50   27   28 1
  51   27  170 1
  52   28   29 1
  53   28  171 1
  54   29   30 1
  55   29  172 1
  56   29  173 1
  57   30   31 1
  58   30  174 1
  59   30  175 1
  60   31   32 1
  61   31  176 1
  62   31  177 1
  63   32   33 1
  64   32  178 1
  65   33   34 2
  66   33   35 1
  67   34  179 1
  68   35  180 1
  69   35  181 1
  70   36   37 2
  71   36   39 1
  72   36   44 am
  73   38   39 1
  74   38  182 1
  75   39   40 1
  76   39  183 1
  77   40   41 1
  78   40  184 1
  79   40  185 1
  80   41  186 1
  81   42   43 2
  82   42   45 1
  83   42   49 am
  84   44   45 1
  85   44  187 1
  86   45   46 1
  87   45  188 1
  88   46  189 1
  89   46  190 1
  90   46  191 1
  91   47   48 2
  92   47   50 1
  93   47   56 am
  94   49   50 1
  95   49  192 1
  96   50   51 1
  97   50  193 1
  98   51   52 1
  99   51   53 1
 100   51  194 1
 101   52  195 1
 102   52  196 1
 103   52  197 1
 104   53  198 1
 105   54   55 2
 106   54   57 1
 107   54   67 am
 108   56   57 1
 109   56  199 1
 110   57   58 1
 111   57  200 1
 112   58   59 1
 113   58  201 1
 114   58  202 1
 115   59   60 1
 116   59  203 1
 117   59  204 1
 118   60   61 1
 119   60  205 1
 120   60  206 1
 121   61   62 1
 122   61  207 1
 123   62   63 2
 124   62   64 1
 125   63  208 1
 126   64  209 1
 127   64  210 1
 128   65   66 2
 129   65   68 1
 130   65   76 am
 131   67   68 1
 132   67  211 1
 133   68   69 1
 134   68  212 1
 135   69   70 1
 136   69  213 1
 137   69  214 1
 138   70   71 1
 139   70  215 1
 140   70  216 1
 141   71   72 2
 142   71   73 am
 143   73  217 1
 144   73  218 1
 145   74   75 2
 146   74   77 1
 147   74   85 am
 148   76   77 1
 149   76  219 1
 150   77   78 1
 151   77  220 1
 152   78   79 1
 153   78  221 1
 154   78  222 1
 155   79   80 1
 156   79  223 1
 157   79  224 1
 158   80   81 2
 159   80   82 am
 160   82  225 1
 161   82  226 1
 162   83   84 2
 163   83   86 1
 164   83   97 am
 165   85   86 1
 166   85  227 1
 167   86   87 1
 168   86  228 1
 169   87   88 1
 170   87  229 1
 171   87  230 1
 172   88   89 ar
 173   88   94 ar
 174   89   90 ar
 175   89  231 1
 176   90   91 ar
 177   90  232 1
 178   91   92 1
 179   91   93 ar
 180   92  233 1
 181   93   94 ar
 182   93  234 1
 183   94  235 1
 184   95   96 2
 185   95   98 1
 186   95  108 am
 187   97   98 1
 188   97  236 1
 189   98   99 1
 190   98  237 1
 191   99  100 1
 192   99  238 1
 193   99  239 1
 194  100  101 1
 195  100  240 1
 196  100  241 1
 197  101  102 1
 198  101  242 1
 199  101  243 1
 200  102  103 1
 201  102  244 1
 202  103  104 2
 203  103  105 1
 204  104  245 1
 205  105  246 1
 206  105  247 1
 207  106  107 2
 208  106  109 1
 209  106  117 am
 210  108  109 1
 211  108  248 1
 212  109  110 1
 213  109  249 1
 214  110  111 1
 215  110  250 1
 216  110  251 1
 217  111  112 1
 218  111  252 1
 219  111  253 1
 220  112  113 1
 221  112  254 1
 222  112  255 1
 223  113  114 1
 224  113  256 1
 225  113  257 1
 226  114  258 1
 227  114  259 1
 228  115  116 2
 229  115  118 1
 230  115  125 am
 231  117  118 1
 232  117  260 1
 233  118  119 1
 234  118  261 1
 235  119  120 1
 236  119  262 1
 237  119  263 1
 238  120  121 1
 239  120  122 1
 240  120  264 1
 241  121  265 1
 242  121  266 1
 243  121  267 1
 244  122  268 1
 245  122  269 1
 246  122  270 1
 247  123  124 2
 248  123  126 1
 249  123  131 1
 250  125  126 1
 251  125  271 1
 252  126  127 1
 253  126  272 1
 254  127  128 1
 255  127  273 1
 256  127  274 1
 257  128  129 1
 258  128  130 1
 259  128  275 1
 260  129  276 1
 261  129  277 1
 262  129  278 1
 263  130  279 1
 264  130  280 1
 265  130  281 1
 266  131  282 1
 267  132  133 2
 268  132  148 1
 269  134  135 1
 270  134  283 1
 271  134  284 1
 272  134  285 1
 273  135  136 1
 274  135  286 1
 275  135  287 1
 276  136  137 1
 277  136  288 1
 278  136  289 1
 279  137  138 1
 280  137  290 1
 281  137  291 1
 282  138  139 1
 283  138  292 1
 284  138  293 1
 285  139  140 1
 286  139  294 1
 287  139  295 1
 288  140  141 1
 289  140  296 1
 290  140  297 1
 291  141  142 1
 292  141  298 1
 293  141  299 1
 294  142  143 1
 295  142  300 1
 296  142  301 1
 297  143  144 1
 298  143  302 1
 299  143  303 1
 300  144  145 1
 301  144  304 1
 302  144  305 1
 303  145  146 1
 304  145  306 1
 305  145  307 1
 306  146  147 1
 307  146  308 1
 308  146  309 1
 309  147  148 1
 310  147  310 1
 311  147  311 1
 312  148  312 1
 313  148  313 1

#	End of record

