#	Name: ASD06660038
#	Creating user name:	WinNT
#	Creation time:	15. 06. 2019 21:07

#	Modifying user name:	WinNT
#	Modification time:	15. 06. 2019 21:07

#	Program:	/corina/corina34_cracker 3.40 0067  02.08.2006

@<TRIPOS>MOLECULE
ASD06660038
  73   76    0    0    0
SMALL
NO_CHARGES


@<TRIPOS>ATOM
   1 C1             0.0351     1.6475     0.9547 C.2     
   2 C2            -0.0040     0.2528     0.3854 C.3     
   3 C3            -1.0761     0.1763    -0.7036 C.3     
   4 O4             1.0497     2.3000     0.8860 O.2     
   5 O5            -1.0590     2.1671     1.5334 O.3     
   6 C6            -1.2067    -1.2471    -1.1807 C.ar    
   7 C7            -2.0736    -2.1129    -0.5394 C.ar    
   8 C8            -2.1958    -3.4180    -0.9741 C.ar    
   9 C9            -1.4467    -3.8608    -2.0569 C.ar    
  10 C10           -0.5769    -2.9885    -2.6989 C.ar    
  11 C11           -0.4638    -1.6831    -2.2625 C.ar    
  12 N12           -1.5675    -5.1802    -2.4988 N.3     
  13 C13           -0.6901    -5.4324    -3.6491 C.3     
  14 C14           -0.9543    -6.8372    -4.1956 C.3     
  15 C15           -0.6902    -7.8665    -3.0932 C.3     
  16 C16           -1.5817    -7.5525    -1.8885 C.3     
  17 C17           -1.2993    -6.1270    -1.4088 C.3     
  18 C18           -1.0062    -9.2474    -3.6073 C.2     
  19 N19           -0.8472   -10.3181    -2.8044 N.am    
  20 O20           -1.4036    -9.3951    -4.7433 O.2     
  21 C21           -1.1369   -11.5841    -3.2757 C.2     
  22 N22           -1.5626   -11.8047    -4.4749 N.2     
  23 C23           -1.7799   -13.2439    -4.6771 C.3     
  24 C24           -1.3909   -13.8731    -3.3245 C.3     
  25 N25           -0.9918   -12.7104    -2.5139 N.pl3   
  26 N26            1.3020    -0.0760    -0.1912 N.am    
  27 C27            2.3265    -0.4208     0.6138 C.2     
  28 C28            3.6680    -0.6643     0.0404 C.ar    
  29 C29            4.0793    -1.9681    -0.2446 C.ar    
  30 C30            5.3283    -2.1951    -0.7780 C.ar    
  31 C31            6.1839    -1.1211    -1.0345 C.ar    
  32 C32            5.7723     0.1827    -0.7499 C.ar    
  33 C33            4.5207     0.4097    -0.2212 C.ar    
  34 O34            2.1480    -0.5316     1.8109 O.2     
  35 C35            4.0742     1.8170     0.0807 C.3     
  36 C36            3.1562    -3.1267     0.0322 C.3     
  37 C37            2.2319    -3.3405    -1.1682 C.3     
  38 C38            7.4831    -1.3570    -1.5888 C.1     
  39 N39            8.5137    -1.5441    -2.0285 N.1     
  40 H40           -0.2402    -0.4569     1.1783 H       
  41 H41           -2.0303     0.5127    -0.2982 H       
  42 H42           -0.7910     0.8150    -1.5396 H       
  43 H43           -0.9856     3.0653     1.8841 H       
  44 H44           -2.6554    -1.7681     0.3027 H       
  45 H45           -2.8727    -4.0938    -0.4725 H       
  46 H46            0.0069    -3.3295    -3.5410 H       
  47 H47            0.2088    -1.0030    -2.7641 H       
  48 H48           -0.8909    -4.6961    -4.4273 H       
  49 H49            0.3510    -5.3545    -3.3356 H       
  50 H50           -1.9916    -6.9115    -4.5220 H       
  51 H51           -0.2919    -7.0298    -5.0396 H       
  52 H52            0.3568    -7.8190    -2.7938 H       
  53 H53           -2.6289    -7.6382    -2.1786 H       
  54 H54           -1.3676    -8.2563    -1.0842 H       
  55 H55           -0.2554    -6.0458    -1.1059 H       
  56 H56           -1.9427    -5.8953    -0.5600 H       
  57 H57           -0.5293   -10.1999    -1.8956 H       
  58 H58           -2.8269   -13.4440    -4.9048 H       
  59 H59           -1.1363   -13.6195    -5.4726 H       
  60 H60           -2.2445   -14.3831    -2.8778 H       
  61 H61           -0.5524   -14.5588    -3.4461 H       
  62 H62           -0.6813   -12.7383    -1.5954 H       
  63 H63            1.4294    -0.0456    -1.1523 H       
  64 H64            5.6466    -3.2035    -0.9977 H       
  65 H65            6.4337     1.0132    -0.9478 H       
  66 H66            4.3571     2.0770     1.1007 H       
  67 H67            4.5512     2.5068    -0.6157 H       
  68 H68            2.9915     1.8852    -0.0247 H       
  69 H69            3.7453    -4.0280     0.2022 H       
  70 H70            2.5580    -2.9113     0.9175 H       
  71 H71            1.7158    -2.4088    -1.3998 H       
  72 H72            2.8218    -3.6529    -2.0299 H       
  73 H73            1.4997    -4.1120    -0.9301 H       
@<TRIPOS>BOND
   1    1    2 1
   2    1    4 2
   3    1    5 1
   4    2    3 1
   5    2   26 1
   6    2   40 1
   7    3    6 1
   8    3   41 1
   9    3   42 1
  10    5   43 1
  11    6    7 ar
  12    6   11 ar
  13    7    8 ar
  14    7   44 1
  15    8    9 ar
  16    8   45 1
  17    9   10 ar
  18    9   12 1
  19   10   11 ar
  20   10   46 1
  21   11   47 1
  22   12   13 1
  23   12   17 1
  24   13   14 1
  25   13   48 1
  26   13   49 1
  27   14   15 1
  28   14   50 1
  29   14   51 1
  30   15   16 1
  31   15   18 1
  32   15   52 1
  33   16   17 1
  34   16   53 1
  35   16   54 1
  36   17   55 1
  37   17   56 1
  38   18   19 am
  39   18   20 2
  40   19   21 1
  41   19   57 1
  42   21   22 2
  43   21   25 1
  44   22   23 1
  45   23   24 1
  46   23   58 1
  47   23   59 1
  48   24   25 1
  49   24   60 1
  50   24   61 1
  51   25   62 1
  52   26   27 am
  53   26   63 1
  54   27   28 1
  55   27   34 2
  56   28   29 ar
  57   28   33 ar
  58   29   30 ar
  59   29   36 1
  60   30   31 ar
  61   30   64 1
  62   31   32 ar
  63   31   38 1
  64   32   33 ar
  65   32   65 1
  66   33   35 1
  67   35   66 1
  68   35   67 1
  69   35   68 1
  70   36   37 1
  71   36   69 1
  72   36   70 1
  73   37   71 1
  74   37   72 1
  75   37   73 1
  76   38   39 3

#	End of record

