#	Name: ASD01916067
#	Creating user name:	WinNT
#	Creation time:	15. 06. 2019 20:06

#	Modifying user name:	WinNT
#	Modification time:	15. 06. 2019 20:06

#	Program:	/corina/corina34_cracker 3.40 0067  02.08.2006

@<TRIPOS>MOLECULE
ASD01916067
  44   46    0    0    0
SMALL
NO_CHARGES


@<TRIPOS>ATOM
   1 C1            -0.0169     1.3974     0.0097 C.ar    
   2 C2             0.0021    -0.0041     0.0020 C.ar    
   3 C3            -1.2070    -0.6758     0.0095 C.ar    
   4 C4            -2.3852     0.0496     0.0241 C.ar    
   5 C5            -3.7040    -0.6796     0.0323 C.3     
   6 C6             1.2059     2.1425     0.0021 C.1     
   7 C7             2.2084     2.7534    -0.0042 C.1     
   8 C8             3.4313     3.4985    -0.0119 C.ar    
   9 C9             3.4022     4.8955    -0.0041 C.ar    
  10 C10            5.8331     3.5564    -0.0288 C.ar    
  11 C11            4.5840     5.6065    -0.0116 C.ar    
  12 N12           -2.3736     1.3687     0.0316 N.ar    
  13 C13           -1.2496     2.0547     0.0192 C.ar    
  14 C14            4.6594     2.8321    -0.0214 C.ar    
  15 C15            5.7965     4.9397    -0.0269 C.ar    
  16 C16           -4.8769     0.3220    -0.0778 C.3     
  17 C17           -3.9232    -1.3625     1.3643 C.2     
  18 N18           -5.1787    -1.1471     1.7932 N.am    
  19 C19           -5.9365    -0.3321     0.8364 C.3     
  20 O20           -3.7555    -1.6293    -1.0342 O.3     
  21 O21           -3.0878    -2.0107     1.9583 O.2     
  22 C22           -5.7212    -1.6604     3.0536 C.3     
  23 C23           -6.8732    -1.2174     0.0120 C.3     
  24 C24           -6.7361     0.7438     1.5740 C.3     
  25 H25            0.9365    -0.5454    -0.0098 H       
  26 H26           -1.2312    -1.7555     0.0035 H       
  27 H27            2.4566     5.4173     0.0074 H       
  28 H28            6.7831     3.0427    -0.0404 H       
  29 H29            4.5631     6.6863    -0.0060 H       
  30 H30           -1.2809     3.1342     0.0258 H       
  31 H31            4.6896     1.7525    -0.0227 H       
  32 H32            6.7187     5.5017    -0.0327 H       
  33 H33           -4.5886     1.3033     0.2991 H       
  34 H34           -5.2363     0.3904    -1.1046 H       
  35 H35           -3.0590    -2.2991    -0.9984 H       
  36 H36           -4.9530    -2.2328     3.5734 H       
  37 H37           -6.0383    -0.8260     3.6792 H       
  38 H38           -6.5759    -2.3041     2.8459 H       
  39 H39           -7.5872    -1.7067     0.6745 H       
  40 H40           -7.4103    -0.6036    -0.7112 H       
  41 H41           -6.2896    -1.9725    -0.5146 H       
  42 H42           -6.0557     1.3719     2.1491 H       
  43 H43           -7.2731     1.3573     0.8506 H       
  44 H44           -7.4491     0.2687     2.2478 H       
@<TRIPOS>BOND
   1    1    2 ar
   2    1    6 1
   3    1   13 ar
   4    2    3 ar
   5    2   25 1
   6    3    4 ar
   7    3   26 1
   8    4   12 ar
   9    4    5 1
  10    5   16 1
  11    5   17 1
  12    5   20 1
  13    6    7 3
  14    7    8 1
  15    8    9 ar
  16    8   14 ar
  17    9   11 ar
  18    9   27 1
  19   10   15 ar
  20   10   14 ar
  21   10   28 1
  22   11   15 ar
  23   11   29 1
  24   12   13 ar
  25   13   30 1
  26   14   31 1
  27   15   32 1
  28   16   19 1
  29   16   33 1
  30   16   34 1
  31   17   18 am
  32   17   21 2
  33   18   19 1
  34   18   22 1
  35   19   23 1
  36   19   24 1
  37   20   35 1
  38   22   36 1
  39   22   37 1
  40   22   38 1
  41   23   39 1
  42   23   40 1
  43   23   41 1
  44   24   42 1
  45   24   43 1
  46   24   44 1

#	End of record

