#	Name: ASD01882838
#	Creating user name:	WinNT
#	Creation time:	15. 06. 2019 19:45

#	Modifying user name:	WinNT
#	Modification time:	15. 06. 2019 19:45

#	Program:	/corina/corina34_cracker 3.40 0067  02.08.2006

@<TRIPOS>MOLECULE
ASD01882838
  41   43    0    0    0
SMALL
NO_CHARGES


@<TRIPOS>ATOM
   1 C1            -0.1995     1.6054    -0.0806 C.2     
   2 C2             0.0027     0.2109    -0.1039 C.2     
   3 C3            -1.0666    -0.6174     0.0312 C.2     
   4 C4            -2.3554    -0.0764     0.1919 C.2     
   5 C5            -2.5375     1.2594     0.2123 C.2     
   6 N6            -1.4724     2.1061     0.0848 N.pl3   
   7 C7            -0.8721    -2.1117     0.0085 C.3     
   8 O8            -1.4577    -2.6861     1.1786 O.3     
   9 C9             1.3884    -0.3555    -0.2772 C.3     
  10 C10           -0.9904    -3.9020     1.5696 C.ar    
  11 C11           -1.5438    -2.6945    -1.2366 C.3     
  12 N12            0.6102     2.6436    -0.1835 N.2     
  13 N13           -0.0705     3.7322    -0.0998 N.2     
  14 C14           -1.3436     3.4617     0.0649 C.2     
  15 O15           -2.3472     4.3664     0.1942 O.3     
  16 F16            1.4108    -1.2007    -1.3918 F       
  17 F17            2.2991     0.6896    -0.4661 F       
  18 F18            1.7419    -1.0811     0.8655 F       
  19 C19            0.0405    -4.5077     0.8678 C.ar    
  20 C20            0.5145    -5.7431     1.2658 C.ar    
  21 C21           -0.0393    -6.3775     2.3649 C.ar    
  22 C22           -1.0692    -5.7755     3.0674 C.ar    
  23 C23           -1.5416    -4.5357     2.6757 C.ar    
  24 F24           -2.5425    -3.9450     3.3644 F       
  25 F25            0.4255    -7.5856     2.7518 F       
  26 C26           -1.9858     5.7480     0.1438 C.3     
  27 C27           -3.2398     6.6094     0.3059 C.3     
  28 H28           -3.2043    -0.7353     0.2991 H       
  29 H29           -3.5315     1.6632     0.3359 H       
  30 H30            0.1937    -2.3391    -0.0136 H       
  31 H31           -1.4031    -3.7752    -1.2530 H       
  32 H32           -2.6096    -2.4671    -1.2146 H       
  33 H33           -1.0971    -2.2563    -2.1291 H       
  34 H34            0.4728    -4.0141     0.0100 H       
  35 H35            1.3176    -6.2146     0.7189 H       
  36 H36           -1.5007    -6.2718     3.9241 H       
  37 H37           -1.2858     5.9700     0.9493 H       
  38 H38           -1.5167     5.9661    -0.8156 H       
  39 H39           -3.9397     6.3874    -0.4996 H       
  40 H40           -3.7089     6.3913     1.2653 H       
  41 H41           -2.9641     7.6633     0.2675 H       
@<TRIPOS>BOND
   1    1    2 1
   2    1   12 2
   3    1    6 1
   4    2    9 1
   5    2    3 2
   6    3    4 1
   7    3    7 1
   8    4    5 2
   9    4   28 1
  10    5    6 1
  11    5   29 1
  12    6   14 1
  13    7    8 1
  14    7   11 1
  15    7   30 1
  16    8   10 1
  17    9   16 1
  18    9   17 1
  19    9   18 1
  20   10   19 ar
  21   10   23 ar
  22   11   31 1
  23   11   32 1
  24   11   33 1
  25   12   13 1
  26   13   14 2
  27   14   15 1
  28   15   26 1
  29   19   20 ar
  30   19   34 1
  31   20   21 ar
  32   20   35 1
  33   21   22 ar
  34   21   25 1
  35   22   23 ar
  36   22   36 1
  37   23   24 1
  38   26   27 1
  39   26   37 1
  40   26   38 1
  41   27   39 1
  42   27   40 1
  43   27   41 1

#	End of record

