#	Name: ASD02560126
#	Creating user name:	WinNT
#	Creation time:	15. 06. 2019 20:24

#	Modifying user name:	WinNT
#	Modification time:	15. 06. 2019 20:24

#	Program:	/corina/corina34_cracker 3.40 0067  02.08.2006

@<TRIPOS>MOLECULE
ASD02560126
  48   51    0    0    0
SMALL
NO_CHARGES


@<TRIPOS>ATOM
   1 N1            -0.0198     1.3611     0.5260 N.2     
   2 N2            -0.2422     0.1638     0.3210 N.2     
   3 C3             1.3838     1.6954     0.2519 C.3     
   4 N4             2.0842     0.3867     0.2153 N.3     
   5 C5             0.9701    -0.5323    -0.1293 C.3     
   6 S6             1.1566    -2.1085     0.7489 S.3     
   7 C7             1.1211    -1.6106     2.4929 C.3     
   8 C8             1.2676    -2.8299     3.3664 C.2     
   9 O9             1.3845    -3.9266     2.8621 O.2     
  10 N10            1.2688    -2.7014     4.7080 N.am    
  11 Br11           1.5444     2.6066    -1.4828 Br      
  12 C12            3.0693     0.3734    -0.7759 C.ar    
  13 C13            1.3299    -3.8357     5.5170 C.ar    
  14 C14            0.7099    -3.8339     6.7641 C.ar    
  15 C15            0.7686    -4.9526     7.5652 C.ar    
  16 C16            1.4517    -6.0905     7.1248 C.ar    
  17 C17            2.0726    -6.0881     5.8726 C.ar    
  18 C18            2.0052    -4.9682     5.0742 C.ar    
  19 Cl19          -0.1372    -2.4201     7.3094 Cl      
  20 C20            1.5172    -7.2902     7.9798 C.2     
  21 O21            0.9773    -7.2907     9.0684 O.2     
  22 O22            2.1759    -8.3859     7.5539 O.3     
  23 C23            3.0185    -0.5684    -1.7947 C.ar    
  24 C24            4.0992     1.3068    -0.7472 C.ar    
  25 C25            5.0710     1.2907    -1.7293 C.ar    
  26 C26            5.0195     0.3475    -2.7396 C.ar    
  27 C27            3.9936    -0.5786    -2.7735 C.ar    
  28 Cl28           4.1639     2.4913     0.5203 Cl      
  29 C29            6.0808     0.3331    -3.8094 C.3     
  30 C30            6.9212    -0.9372    -3.9537 C.3     
  31 C31            5.8648    -0.5951    -5.0063 C.3     
  32 H32            1.7878     2.3200     1.0486 H       
  33 H33            0.9344    -0.6985    -1.2060 H       
  34 H34            1.9418    -0.9212     2.6907 H       
  35 H35            0.1730    -1.1191     2.7111 H       
  36 H36            1.2271    -1.8200     5.1109 H       
  37 H37            0.2880    -4.9509     8.5324 H       
  38 H38            2.6012    -6.9652     5.5297 H       
  39 H39            2.4849    -4.9661     4.1066 H       
  40 H40            2.1916    -9.1477     8.1493 H       
  41 H41            2.2177    -1.2925    -1.8220 H       
  42 H42            5.8713     2.0156    -1.7082 H       
  43 H43            3.9566    -1.3137    -3.5638 H       
  44 H44            6.5747     1.2870    -3.9945 H       
  45 H45            7.9679    -0.8191    -4.2342 H       
  46 H46            6.7065    -1.7626    -3.2749 H       
  47 H47            4.9551    -1.1954    -5.0200 H       
  48 H48            6.2165    -0.2519    -5.9792 H       
@<TRIPOS>BOND
   1    1    2 2
   2    1    3 1
   3    2    5 1
   4    3    4 1
   5    3   11 1
   6    3   32 1
   7    4    5 1
   8    4   12 1
   9    5    6 1
  10    5   33 1
  11    6    7 1
  12    7    8 1
  13    7   34 1
  14    7   35 1
  15    8    9 2
  16    8   10 am
  17   10   13 1
  18   10   36 1
  19   12   23 ar
  20   12   24 ar
  21   13   14 ar
  22   13   18 ar
  23   14   15 ar
  24   14   19 1
  25   15   16 ar
  26   15   37 1
  27   16   17 ar
  28   16   20 1
  29   17   18 ar
  30   17   38 1
  31   18   39 1
  32   20   21 2
  33   20   22 1
  34   22   40 1
  35   23   27 ar
  36   23   41 1
  37   24   25 ar
  38   24   28 1
  39   25   26 ar
  40   25   42 1
  41   26   27 ar
  42   26   29 1
  43   27   43 1
  44   29   30 1
  45   29   31 1
  46   29   44 1
  47   30   31 1
  48   30   45 1
  49   30   46 1
  50   31   47 1
  51   31   48 1

#	End of record

