#	Name: ASD02408125
#	Creating user name:	WinNT
#	Creation time:	15. 06. 2019 20:21

#	Modifying user name:	WinNT
#	Modification time:	15. 06. 2019 20:21

#	Program:	/corina/corina34_cracker 3.40 0067  02.08.2006

@<TRIPOS>MOLECULE
ASD02408125
  50   52    0    0    0
SMALL
NO_CHARGES


@<TRIPOS>ATOM
   1 C1            -0.0167     1.3829     0.0096 C.ar    
   2 C2             0.0021    -0.0041     0.0020 C.ar    
   3 C3             1.1767     2.0906     0.0021 C.ar    
   4 C4             2.3801     1.4129    -0.0131 C.ar    
   5 C5             2.3962     0.0301    -0.0207 C.ar    
   6 C6             1.2085    -0.6774    -0.0131 C.ar    
   7 C7             1.1599     3.5975     0.0098 C.3     
   8 C8             1.0438     4.0913     1.4289 C.2     
   9 N9             1.0118     5.4187     1.6558 N.am    
  10 N10            0.9721     3.2184     2.3968 N.2     
  11 C11            0.8673     3.5990     3.6764 C.2     
  12 C12            0.8336     4.9689     3.9853 C.2     
  13 C13            0.9079     5.8959     2.9140 C.2     
  14 N14            0.7931     2.6602     4.6759 N.pl3   
  15 C15            0.8284     1.2335     4.3449 C.3     
  16 O16            0.8829     7.0961     3.1254 O.2     
  17 O17           -1.2021     2.0475     0.0189 O.3     
  18 C18           -2.3907     1.2541     0.0202 C.3     
  19 C19           -3.6157     2.1708     0.0310 C.3     
  20 C20            1.3486     0.4437     5.5476 C.3     
  21 C21           -0.5821     0.7565     3.9930 C.3     
  22 C22           -0.5452    -0.7334     3.6473 C.3     
  23 C23           -0.0250    -1.5233     4.8500 C.3     
  24 C24            1.3855    -1.0463     5.2019 C.3     
  25 C25            0.7223     5.4164     5.3410 C.1     
  26 N26            0.6339     5.7714     6.4164 N.1     
  27 H27           -0.9255    -0.5572     0.0083 H       
  28 H28            3.3093     1.9633    -0.0194 H       
  29 H29            3.3382    -0.4980    -0.0328 H       
  30 H30            1.2237    -1.7572    -0.0191 H       
  31 H31            2.0831     3.9734    -0.4313 H       
  32 H32            0.3086     3.9544    -0.5699 H       
  33 H33            1.0641     6.0362     0.9096 H       
  34 H34            0.7173     2.9417     5.6011 H       
  35 H35            1.4890     1.0745     3.4926 H       
  36 H36           -2.4118     0.6299    -0.8731 H       
  37 H37           -2.4034     0.6202     0.9068 H       
  38 H38           -3.6029     2.8047    -0.8556 H       
  39 H39           -4.5222     1.5656     0.0320 H       
  40 H40           -3.5945     2.7950     0.9243 H       
  41 H41            2.3535     0.7834     5.7984 H       
  42 H42            0.6880     0.6026     6.4000 H       
  43 H43           -1.2427     0.9155     4.8453 H       
  44 H44           -0.9527     1.3193     3.1362 H       
  45 H45           -1.5501    -1.0732     3.3965 H       
  46 H46            0.1153    -0.8924     2.7949 H       
  47 H47           -0.6856    -1.3643     5.7023 H       
  48 H48            0.0012    -2.5848     4.6037 H       
  49 H49            2.0460    -1.2053     4.3496 H       
  50 H50            1.7561    -1.6090     6.0587 H       
@<TRIPOS>BOND
   1    1    2 ar
   2    1    3 ar
   3    1   17 1
   4    2    6 ar
   5    2   27 1
   6    3    4 ar
   7    3    7 1
   8    4    5 ar
   9    4   28 1
  10    5    6 ar
  11    5   29 1
  12    6   30 1
  13    7    8 1
  14    7   31 1
  15    7   32 1
  16    8    9 1
  17    8   10 2
  18    9   13 am
  19    9   33 1
  20   10   11 1
  21   11   12 2
  22   11   14 1
  23   12   13 1
  24   12   25 1
  25   13   16 2
  26   14   15 1
  27   14   34 1
  28   15   20 1
  29   15   21 1
  30   15   35 1
  31   17   18 1
  32   18   19 1
  33   18   36 1
  34   18   37 1
  35   19   38 1
  36   19   39 1
  37   19   40 1
  38   20   24 1
  39   20   41 1
  40   20   42 1
  41   21   22 1
  42   21   43 1
  43   21   44 1
  44   22   23 1
  45   22   45 1
  46   22   46 1
  47   23   24 1
  48   23   47 1
  49   23   48 1
  50   24   49 1
  51   24   50 1
  52   25   26 3

#	End of record

