#	Name: ASD01190147
#	Creating user name:	WinNT
#	Creation time:	15. 06. 2019 19:07

#	Modifying user name:	WinNT
#	Modification time:	15. 06. 2019 19:07

#	Program:	/corina/corina34_cracker 3.40 0067  02.08.2006

@<TRIPOS>MOLECULE
ASD01190147
  47   50    0    0    0
SMALL
NO_CHARGES


@<TRIPOS>ATOM
   1 N1            -0.7181     3.8253     0.7372 N.pl3   
   2 N2            -1.4156     3.8450     1.8159 N.2     
   3 C3            -0.6887     3.4292     2.8339 C.2     
   4 C4             0.5966     3.1197     2.3277 C.2     
   5 C5             0.5366     3.3833     1.0005 C.2     
   6 C6            -1.1179     3.3134     4.1952 C.1     
   7 N7            -1.4584     3.2216     5.2751 N.1     
   8 C8             1.6544     3.2168     0.0035 C.3     
   9 C9             1.6449     1.7863    -0.5391 C.3     
  10 O10            1.4718     4.1365    -1.0748 O.3     
  11 N11            6.4983     4.4842     2.5607 N.pl3   
  12 N12            6.2425     5.8278     2.8538 N.2     
  13 C13            5.0585     6.1620     2.4246 C.2     
  14 C14            4.4613     4.9859     1.8000 C.ar    
  15 C15            3.2353     4.7339     1.1741 C.ar    
  16 C16            2.9740     3.4894     0.6782 C.ar    
  17 C17            3.9130     2.4713     0.7901 C.ar    
  18 C18            5.1166     2.6930     1.3973 C.ar    
  19 C19            5.4115     3.9525     1.9122 C.ar    
  20 C20            7.6766     3.7939     2.8733 C.ar    
  21 C21            8.8993     4.4509     2.8312 C.ar    
  22 C22           10.0597     3.7685     3.1397 C.ar    
  23 C23           10.0045     2.4300     3.4908 C.ar    
  24 C24            8.7861     1.7730     3.5334 C.ar    
  25 C25            7.6228     2.4532     3.2312 C.ar    
  26 F26           11.1408     1.7642     3.7918 F       
  27 F27            0.4198     1.5332    -1.1654 F       
  28 F28            2.6825     1.6317    -1.4646 F       
  29 F29            1.8236     0.8859     0.5167 F       
  30 Br30           2.0847     2.4747     3.3002 Br      
  31 C31           -1.2089     4.2174    -0.5863 C.3     
  32 C32           -0.9632     5.6892    -0.7974 C.2     
  33 C33           -0.2924     6.0975    -1.8459 C.2     
  34 H34            1.4672     5.0647    -0.8036 H       
  35 H35            4.6005     7.1359     2.5152 H       
  36 H36            2.5000     5.5197     1.0839 H       
  37 H37            3.6885     1.4926     0.3924 H       
  38 H38            5.8376     1.8930     1.4780 H       
  39 H39            8.9428     5.4946     2.5571 H       
  40 H40           11.0109     4.2790     3.1067 H       
  41 H41            8.7453     0.7291     3.8071 H       
  42 H42            6.6724     1.9417     3.2692 H       
  43 H43           -0.6829     3.6477    -1.3523 H       
  44 H44           -2.2778     4.0144    -0.6523 H       
  45 H45           -1.3401     6.4073    -0.0842 H       
  46 H46           -0.1163     7.1522    -1.9972 H       
  47 H47            0.0846     5.3793    -2.5591 H       
@<TRIPOS>BOND
   1    1    2 1
   2    1    5 1
   3    1   31 1
   4    2    3 2
   5    3    4 1
   6    3    6 1
   7    4    5 2
   8    4   30 1
   9    5    8 1
  10    6    7 3
  11    8    9 1
  12    8   10 1
  13    8   16 1
  14    9   27 1
  15    9   28 1
  16    9   29 1
  17   10   34 1
  18   11   12 1
  19   11   19 1
  20   11   20 1
  21   12   13 2
  22   13   14 1
  23   13   35 1
  24   14   15 ar
  25   14   19 ar
  26   15   16 ar
  27   15   36 1
  28   16   17 ar
  29   17   18 ar
  30   17   37 1
  31   18   19 ar
  32   18   38 1
  33   20   21 ar
  34   20   25 ar
  35   21   22 ar
  36   21   39 1
  37   22   23 ar
  38   22   40 1
  39   23   24 ar
  40   23   26 1
  41   24   25 ar
  42   24   41 1
  43   25   42 1
  44   31   32 1
  45   31   43 1
  46   31   44 1
  47   32   33 2
  48   32   45 1
  49   33   46 1
  50   33   47 1

#	End of record

