#	Name: ASD07301058
#	Creating user name:	WinNT
#	Creation time:	15. 06. 2019 21:10

#	Modifying user name:	WinNT
#	Modification time:	15. 06. 2019 21:10

#	Program:	/corina/corina34_cracker 3.40 0067  02.08.2006

@<TRIPOS>MOLECULE
ASD07301058
  35   36    0    0    0
SMALL
NO_CHARGES


@<TRIPOS>ATOM
   1 C1            -0.3347     1.5655    -0.0268 C.2     
   2 C2            -0.0811     0.1161    -0.0278 C.2     
   3 C3             1.2730    -0.3049    -0.0663 C.2     
   4 C4             2.2318     0.6513    -0.0993 C.2     
   5 N5             1.9021     1.9658    -0.0954 N.pl3   
   6 N6             0.6923     2.3879    -0.0612 N.2     
   7 O7            -0.9977    -0.6903     0.0036 O.2     
   8 C8            -1.7171     2.0880     0.0060 C.2     
   9 C9            -1.9454     3.4820     0.0066 C.2     
  10 C10           -3.2098     3.9600     0.0366 C.2     
  11 O11           -2.6595     1.3163     0.0326 O.2     
  12 N12           -3.4296     5.3025     0.1516 N.pl3   
  13 C13           -2.3029     6.2131     0.3699 C.3     
  14 C14           -4.7920     5.8325     0.0566 C.3     
  15 C15            2.9341     2.9096    -0.1305 C.ar    
  16 C16            4.2582     2.4961    -0.0534 C.ar    
  17 C17            5.2748     3.4298    -0.0888 C.ar    
  18 C18            4.9758     4.7765    -0.2008 C.ar    
  19 C19            3.6575     5.1913    -0.2773 C.ar    
  20 C20            2.6371     4.2616    -0.2482 C.ar    
  21 Cl21           6.2565     5.9476    -0.2450 Cl      
  22 H22            1.5310    -1.3537    -0.0689 H       
  23 H23            3.2721     0.3625    -0.1287 H       
  24 H24           -1.1100     4.1661    -0.0169 H       
  25 H25           -4.0460     3.2797    -0.0303 H       
  26 H26           -1.3690     5.6528     0.3255 H       
  27 H27           -2.3023     6.9821    -0.4026 H       
  28 H28           -2.3992     6.6820     1.3492 H       
  29 H29           -5.2417     5.8587     1.0492 H       
  30 H30           -4.7616     6.8413    -0.3552 H       
  31 H31           -5.3865     5.1919    -0.5948 H       
  32 H32            4.4921     1.4454     0.0344 H       
  33 H33            6.3043     3.1089    -0.0286 H       
  34 H34            3.4270     6.2429    -0.3640 H       
  35 H35            1.6088     4.5854    -0.3128 H       
@<TRIPOS>BOND
   1    1    2 1
   2    1    6 2
   3    1    8 1
   4    2    3 1
   5    2    7 2
   6    3    4 2
   7    3   22 1
   8    4    5 1
   9    4   23 1
  10    5    6 1
  11    5   15 1
  12    8    9 1
  13    8   11 2
  14    9   10 2
  15    9   24 1
  16   10   12 1
  17   10   25 1
  18   12   13 1
  19   12   14 1
  20   13   26 1
  21   13   27 1
  22   13   28 1
  23   14   29 1
  24   14   30 1
  25   14   31 1
  26   15   16 ar
  27   15   20 ar
  28   16   17 ar
  29   16   32 1
  30   17   18 ar
  31   17   33 1
  32   18   19 ar
  33   18   21 1
  34   19   20 ar
  35   19   34 1
  36   20   35 1

#	End of record

