#	Name: ASD01411211
#	Creating user name:	WinNT
#	Creation time:	15. 06. 2019 19:19

#	Modifying user name:	WinNT
#	Modification time:	15. 06. 2019 19:19

#	Program:	/corina/corina34_cracker 3.40 0067  02.08.2006

@<TRIPOS>MOLECULE
ASD01411211
  68   71    0    0    0
SMALL
NO_CHARGES


@<TRIPOS>ATOM
   1 C1            -0.7012     1.1440    -1.7022 C.ar    
   2 C2            -0.4134    -0.1872    -1.5332 C.ar    
   3 C3             0.8514    -0.6925    -1.8272 C.ar    
   4 C4             1.8351     0.1698    -2.2921 C.ar    
   5 C5             1.5519     1.5109    -2.4619 C.ar    
   6 C6             0.2873     2.0048    -2.1707 C.ar    
   7 P7            -1.6597    -1.3578    -0.9144 P.3     
   8 N8            -0.8589    -2.7411    -0.5157 N.2     
   9 C9             0.3664    -2.9123    -0.9074 C.2     
  10 N10            1.1081    -2.0515    -1.6572 N.pl3   
  11 C11            1.0230    -4.1679    -0.4976 C.2     
  12 C12            0.4491    -5.1496     0.2511 C.2     
  13 C13            1.4920    -6.2310     0.4159 C.3     
  14 N14            2.6811    -5.7590    -0.3038 N.am    
  15 C15            2.3935    -4.5583    -0.8373 C.2     
  16 O16           -2.3290    -0.7985     0.2813 O.2     
  17 O17           -2.7462    -1.6626    -2.0627 O.3     
  18 O18           -0.8004    -5.1556     0.7470 O.3     
  19 O19            3.1624    -3.8905    -1.5030 O.2     
  20 C20           -3.5597    -0.6472    -2.6538 C.3     
  21 C21           -4.4775    -1.2760    -3.7041 C.3     
  22 C22            1.8169    -6.4285     1.8980 C.3     
  23 C23            0.5225    -6.6767     2.6751 C.3     
  24 C24            2.7479    -7.6317     2.0601 C.3     
  25 C25            2.5050    -5.1744     2.4407 C.3     
  26 N26            0.0071     3.3642    -2.3482 N.am    
  27 S27           -0.0790     4.3702    -1.0355 S.o2    
  28 O28           -0.2813     5.6604    -1.5955 O.2     
  29 O29           -1.0602     3.7722    -0.1996 O.2     
  30 C30            1.5623     4.2583    -0.2711 C.3     
  31 C31            3.9546    -6.4728    -0.4250 C.3     
  32 C32            3.9011    -7.3974    -1.6139 C.ar    
  33 C33            4.3005    -6.9460    -2.8582 C.ar    
  34 C34            4.2523    -7.7921    -3.9500 C.ar    
  35 C35            3.8039    -9.0927    -3.7984 C.ar    
  36 C36            3.4034    -9.5454    -2.5506 C.ar    
  37 C37            3.4582    -8.6973    -1.4581 C.ar    
  38 F38            2.9654   -10.8145    -2.4002 F       
  39 F39            3.7561    -9.9202    -4.8653 F       
  40 H40           -1.6885     1.5200    -1.4777 H       
  41 H41            2.8209    -0.2077    -2.5204 H       
  42 H42            2.3189     2.1796    -2.8236 H       
  43 H43            1.8826    -2.4162    -2.1133 H       
  44 H44            1.1363    -7.1652    -0.0188 H       
  45 H45           -1.3528    -4.3856     0.5546 H       
  46 H46           -4.1639    -0.1706    -1.8819 H       
  47 H47           -2.9221     0.0987    -3.1283 H       
  48 H48           -5.0979    -0.5015    -4.1549 H       
  49 H49           -3.8732    -1.7527    -4.4760 H       
  50 H50           -5.1151    -2.0220    -3.2295 H       
  51 H51            0.0322    -7.5701     2.2884 H       
  52 H52            0.7539    -6.8174     3.7309 H       
  53 H53           -0.1407    -5.8195     2.5596 H       
  54 H54            3.7796    -7.3164     1.9046 H       
  55 H55            2.6406    -8.0413     3.0645 H       
  56 H56            2.4866    -8.3947     1.3268 H       
  57 H57            1.8418    -4.3171     2.3252 H       
  58 H58            2.7365    -5.3150     3.4965 H       
  59 H59            3.4272    -4.9975     1.8871 H       
  60 H60           -0.1366     3.7174    -3.2401 H       
  61 H61            2.3252     4.4979    -1.0119 H       
  62 H62            1.6261     4.9637     0.5574 H       
  63 H63            1.7219     3.2460     0.1004 H       
  64 H64            4.7627    -5.7539    -0.5599 H       
  65 H65            4.1328    -7.0542     0.4797 H       
  66 H66            4.6501    -5.9311    -2.9772 H       
  67 H67            4.5642    -7.4382    -4.9216 H       
  68 H68            3.1510    -9.0501    -0.4846 H       
@<TRIPOS>BOND
   1    1    2 ar
   2    1    6 ar
   3    1   40 1
   4    2    3 ar
   5    2    7 1
   6    3    4 ar
   7    3   10 1
   8    4    5 ar
   9    4   41 1
  10    5    6 ar
  11    5   42 1
  12    6   26 1
  13    7    8 1
  14    7   16 2
  15    7   17 1
  16    8    9 2
  17    9   10 1
  18    9   11 1
  19   10   43 1
  20   11   12 2
  21   11   15 1
  22   12   13 1
  23   12   18 1
  24   13   14 1
  25   13   22 1
  26   13   44 1
  27   14   15 am
  28   14   31 1
  29   15   19 2
  30   17   20 1
  31   18   45 1
  32   20   21 1
  33   20   46 1
  34   20   47 1
  35   21   48 1
  36   21   49 1
  37   21   50 1
  38   22   23 1
  39   22   24 1
  40   22   25 1
  41   23   51 1
  42   23   52 1
  43   23   53 1
  44   24   54 1
  45   24   55 1
  46   24   56 1
  47   25   57 1
  48   25   58 1
  49   25   59 1
  50   26   27 am
  51   26   60 1
  52   27   28 2
  53   27   29 2
  54   27   30 1
  55   30   61 1
  56   30   62 1
  57   30   63 1
  58   31   32 1
  59   31   64 1
  60   31   65 1
  61   32   33 ar
  62   32   37 ar
  63   33   34 ar
  64   33   66 1
  65   34   35 ar
  66   34   67 1
  67   35   36 ar
  68   35   39 1
  69   36   37 ar
  70   36   38 1
  71   37   68 1

#	End of record

