#	Name: ASD02039221
#	Creating user name:	WinNT
#	Creation time:	15. 06. 2019 20:17

#	Modifying user name:	WinNT
#	Modification time:	15. 06. 2019 20:17

#	Program:	/corina/corina34_cracker 3.40 0067  02.08.2006

@<TRIPOS>MOLECULE
ASD02039221
  46   49    0    0    0
SMALL
NO_CHARGES


@<TRIPOS>ATOM
   1 N1            -0.0044     1.3289    -0.1401 N.am    
   2 C2            -0.0016    -0.0006     0.0574 C.2     
   3 C3             1.1860    -0.7040     0.3533 C.2     
   4 C4             2.3656    -0.0422     0.4452 C.2     
   5 C5             2.3730     1.4070     0.2312 C.ar    
   6 C6             3.5575     2.1408     0.3136 C.ar    
   7 C7             3.5236     3.5175     0.1041 C.ar    
   8 C8             2.3071     4.1547    -0.1867 C.ar    
   9 C9             1.1492     3.4391    -0.2676 C.ar    
  10 C10            1.1595     2.0611    -0.0611 C.ar    
  11 O11           -1.0514    -0.6147    -0.0206 O.2     
  12 C12            4.7641     4.3048     0.1882 C.2     
  13 C13            4.7319     5.6369    -0.0145 C.2     
  14 O14            7.1973     5.9515     0.3374 O.3     
  15 N15            7.9954     6.8646     0.3314 N.2     
  16 C16            7.3941     7.9957     0.0670 C.2     
  17 N17            6.0861     7.7284    -0.1048 N.2     
  18 C18            5.9664     6.4203     0.0692 C.2     
  19 N19            7.9958     9.2451    -0.0201 N.pl3   
  20 C20            9.3882     9.3598     0.0737 C.ar    
  21 C21           10.2012     8.3152    -0.3465 C.ar    
  22 C22           11.5741     8.4290    -0.2537 C.ar    
  23 C23           12.1415     9.5866     0.2591 C.ar    
  24 C24           11.3303    10.6302     0.6789 C.ar    
  25 C25            9.9569    10.5202     0.5814 C.ar    
  26 C26           12.4565     7.2954    -0.7090 C.3     
  27 O27           13.4937     9.6977     0.3505 O.3     
  28 C28           14.0095    10.9172     0.8881 C.3     
  29 F29           13.5973    11.9898     0.0900 F       
  30 F30           13.5290    11.0930     2.1901 F       
  31 H31           -0.8387     1.7792    -0.3454 H       
  32 H32            1.1547    -1.7725     0.5074 H       
  33 H33            3.2794    -0.5715     0.6715 H       
  34 H34            4.4910     1.6461     0.5380 H       
  35 H35            2.2879     5.2224    -0.3477 H       
  36 H36            0.2204     3.9424    -0.4921 H       
  37 H37            5.7003     3.8151     0.4122 H       
  38 H38            3.7958     6.1266    -0.2385 H       
  39 H39            7.4512    10.0379    -0.1458 H       
  40 H40            9.7597     7.4138    -0.7453 H       
  41 H41           11.7727    11.5309     1.0782 H       
  42 H42            9.3255    11.3348     0.9042 H       
  43 H43           12.6997     7.4253    -1.7636 H       
  44 H44           13.3751     7.2916    -0.1222 H       
  45 H45           11.9331     6.3494    -0.5707 H       
  46 H46           15.0986    10.8747     0.9054 H       
@<TRIPOS>BOND
   1    1    2 am
   2    1   10 1
   3    1   31 1
   4    2    3 1
   5    2   11 2
   6    3    4 2
   7    3   32 1
   8    4    5 1
   9    4   33 1
  10    5    6 ar
  11    5   10 ar
  12    6    7 ar
  13    6   34 1
  14    7    8 ar
  15    7   12 1
  16    8    9 ar
  17    8   35 1
  18    9   10 ar
  19    9   36 1
  20   12   13 2
  21   12   37 1
  22   13   18 1
  23   13   38 1
  24   14   15 1
  25   14   18 1
  26   15   16 2
  27   16   17 1
  28   16   19 1
  29   17   18 2
  30   19   20 1
  31   19   39 1
  32   20   21 ar
  33   20   25 ar
  34   21   22 ar
  35   21   40 1
  36   22   23 ar
  37   22   26 1
  38   23   24 ar
  39   23   27 1
  40   24   25 ar
  41   24   41 1
  42   25   42 1
  43   26   43 1
  44   26   44 1
  45   26   45 1
  46   27   28 1
  47   28   29 1
  48   28   30 1
  49   28   46 1

#	End of record

