#	Name: ASD07000016
#	Creating user name:	WinNT
#	Creation time:	15. 06. 2019 21:08

#	Modifying user name:	WinNT
#	Modification time:	15. 06. 2019 21:08

#	Program:	/corina/corina34_cracker 3.40 0067  02.08.2006

@<TRIPOS>MOLECULE
ASD07000016
  32   33    0    0    0
SMALL
NO_CHARGES


@<TRIPOS>ATOM
   1 C1            -0.0184     1.5028     0.0103 C.3     
   2 C2             0.0021    -0.0041     0.0020 C.2     
   3 C3             1.3954     2.0244    -0.0004 C.ar    
   4 C4            -0.6104    -2.1797     0.9256 C.3     
   5 C5             2.0324     2.2701    -1.2024 C.ar    
   6 C6             3.3293     2.7485    -1.2122 C.ar    
   7 C7             3.9890     2.9817    -0.0200 C.ar    
   8 C8             3.3517     2.7369     1.1820 C.ar    
   9 C9             2.0533     2.2626     1.1918 C.ar    
  10 C10           -0.9940    -2.9307     3.2823 C.ar    
  11 C11           -0.1049    -2.6825     2.2532 C.ar    
  12 C12           -0.6308    -0.6728     0.9338 C.2     
  13 C13           -0.5304    -3.3919     4.5001 C.ar    
  14 C14            0.8223    -3.6050     4.6890 C.ar    
  15 C15            1.7114    -3.3573     3.6598 C.ar    
  16 C16            1.2477    -2.8961     2.4419 C.ar    
  17 H17           -0.5455     1.8639    -0.8728 H       
  18 H18           -0.5286     1.8543     0.9071 H       
  19 H19            0.5385    -0.5326    -0.7721 H       
  20 H20            0.0475    -2.5298     0.1301 H       
  21 H21           -1.6190    -2.5558     0.7547 H       
  22 H22            1.5170     2.0879    -2.1338 H       
  23 H23            3.8272     2.9397    -2.1513 H       
  24 H24            5.0025     3.3548    -0.0277 H       
  25 H25            3.8673     2.9187     2.1134 H       
  26 H26            1.5541     2.0748     2.1309 H       
  27 H27           -2.0504    -2.7599     3.1361 H       
  28 H28           -1.1672    -0.1443     1.7080 H       
  29 H29           -1.2250    -3.5855     5.3041 H       
  30 H30            1.1846    -3.9648     5.6407 H       
  31 H31            2.7682    -3.5238     3.8073 H       
  32 H32            1.9423    -2.7022     1.6380 H       
@<TRIPOS>BOND
   1    1    2 1
   2    1    3 1
   3    1   17 1
   4    1   18 1
   5    2   12 2
   6    2   19 1
   7    3    5 ar
   8    3    9 ar
   9    4   11 1
  10    4   12 1
  11    4   20 1
  12    4   21 1
  13    5    6 ar
  14    5   22 1
  15    6    7 ar
  16    6   23 1
  17    7    8 ar
  18    7   24 1
  19    8    9 ar
  20    8   25 1
  21    9   26 1
  22   10   11 ar
  23   10   13 ar
  24   10   27 1
  25   11   16 ar
  26   12   28 1
  27   13   14 ar
  28   13   29 1
  29   14   15 ar
  30   14   30 1
  31   15   16 ar
  32   15   31 1
  33   16   32 1

#	End of record

