#	Name: ASD02198794
#	Creating user name:	WinNT
#	Creation time:	15. 06. 2019 20:20

#	Modifying user name:	WinNT
#	Modification time:	15. 06. 2019 20:20

#	Program:	/corina/corina34_cracker 3.40 0067  02.08.2006

@<TRIPOS>MOLECULE
ASD02198794
  50   54    0    0    0
SMALL
NO_CHARGES


@<TRIPOS>ATOM
   1 C1            -0.0433     1.5017    -0.1149 C.2     
   2 C2            -0.0730     0.1621     0.0976 C.2     
   3 N3             1.0716    -0.5396     0.2604 N.pl3   
   4 N4             2.2361    -0.0049     0.2263 N.2     
   5 C5             2.4077     1.2843     0.0277 C.2     
   6 C6             1.2217     2.1357    -0.1604 C.2     
   7 C7             0.9802    -1.9171     0.4771 C.ar    
   8 C8             1.5826    -2.4877     1.5985 C.ar    
   9 C9             1.4917    -3.8513     1.8124 C.ar    
  10 C10            0.7980    -4.6519     0.9064 C.ar    
  11 C11            0.1973    -4.0765    -0.2135 C.ar    
  12 C12            0.2844    -2.7167    -0.4216 C.ar    
  13 C13            3.7646     1.8665    -0.0050 C.2     
  14 N14            4.3067     2.6063    -1.0182 N.pl3   
  15 N15            5.6087     2.9575    -0.6406 N.2     
  16 C16            5.8525     2.4581     0.5448 C.2     
  17 C17            4.7203     1.7712     0.9828 C.2     
  18 C18            3.6735     2.9512    -2.2190 C.ar    
  19 C19            3.8078     4.2344    -2.7328 C.ar    
  20 C20            3.1827     4.5713    -3.9173 C.ar    
  21 C21            2.4232     3.6326    -4.5914 C.ar    
  22 C22            2.2875     2.3540    -4.0824 C.ar    
  23 C23            2.9149     2.0092    -2.9012 C.ar    
  24 O24            1.3247     3.3386    -0.3487 O.2     
  25 C25            0.6991    -6.1135     1.1324 C.ar    
  26 N26            1.2690    -6.6740     2.1979 N.ar    
  27 C27            0.0014    -6.9257     0.2342 C.ar    
  28 C28           -0.0612    -8.2837     0.4907 C.ar    
  29 N29            0.5368    -8.7655     1.5696 N.ar    
  30 C30            1.1827    -7.9719     2.4010 C.ar    
  31 O31            2.2587    -1.7045     2.4799 O.3     
  32 C32            2.8504    -2.3563     3.6056 C.3     
  33 H33           -0.9547     2.0653    -0.2494 H       
  34 H34           -1.0228    -0.3504     0.1376 H       
  35 H35            1.9577    -4.2950     2.6798 H       
  36 H36           -0.3400    -4.6964    -0.9160 H       
  37 H37           -0.1816    -2.2731    -1.2890 H       
  38 H38            6.7760     2.5642     1.0946 H       
  39 H39            4.6145     1.2517     1.9238 H       
  40 H40            4.4003     4.9681    -2.2065 H       
  41 H41            3.2867     5.5690    -4.3174 H       
  42 H42            1.9347     3.8987    -5.5171 H       
  43 H43            1.6937     1.6231    -4.6111 H       
  44 H44            2.8088     1.0104    -2.5044 H       
  45 H45           -0.4768    -6.5041    -0.6376 H       
  46 H46           -0.5915    -8.9429    -0.1805 H       
  47 H47            1.6587    -8.3994     3.2711 H       
  48 H48            3.3577    -1.6186     4.2273 H       
  49 H49            2.0736    -2.8506     4.1890 H       
  50 H50            3.5712    -3.0969     3.2591 H       
@<TRIPOS>BOND
   1    1    2 2
   2    1    6 1
   3    1   33 1
   4    2    3 1
   5    2   34 1
   6    3    4 1
   7    3    7 1
   8    4    5 2
   9    5    6 1
  10    5   13 1
  11    6   24 2
  12    7    8 ar
  13    7   12 ar
  14    8    9 ar
  15    8   31 1
  16    9   10 ar
  17    9   35 1
  18   10   11 ar
  19   10   25 1
  20   11   12 ar
  21   11   36 1
  22   12   37 1
  23   13   14 1
  24   13   17 2
  25   14   15 1
  26   14   18 1
  27   15   16 2
  28   16   17 1
  29   16   38 1
  30   17   39 1
  31   18   19 ar
  32   18   23 ar
  33   19   20 ar
  34   19   40 1
  35   20   21 ar
  36   20   41 1
  37   21   22 ar
  38   21   42 1
  39   22   23 ar
  40   22   43 1
  41   23   44 1
  42   25   26 ar
  43   25   27 ar
  44   26   30 ar
  45   27   28 ar
  46   27   45 1
  47   28   29 ar
  48   28   46 1
  49   29   30 ar
  50   30   47 1
  51   31   32 1
  52   32   48 1
  53   32   49 1
  54   32   50 1

#	End of record

