#	Name: ASD01916135
#	Creating user name:	WinNT
#	Creation time:	15. 06. 2019 20:06

#	Modifying user name:	WinNT
#	Modification time:	15. 06. 2019 20:06

#	Program:	/corina/corina34_cracker 3.40 0067  02.08.2006

@<TRIPOS>MOLECULE
ASD01916135
  47   50    0    0    0
SMALL
NO_CHARGES


@<TRIPOS>ATOM
   1 C1             0.0784     1.3897    -0.0554 C.ar    
   2 C2             0.0835     0.0083    -0.0555 C.ar    
   3 C3             1.2882    -0.6797    -0.0536 C.ar    
   4 C4             2.4850     0.0218    -0.0515 C.ar    
   5 C5             2.4746     1.4032    -0.0513 C.ar    
   6 C6             1.2726     2.0866    -0.0532 C.ar    
   7 O7             1.2958    -2.0387    -0.0533 O.3     
   8 C8             2.5727    -2.6803    -0.0512 C.3     
   9 C9             2.3837    -4.1754    -0.0512 C.2     
  10 C10            1.1546    -4.8473    -0.0529 C.2     
  11 N11            3.3406    -5.0702    -0.0553 N.2     
  12 N12            2.7522    -6.3377    -0.0581 N.pl3   
  13 C13            1.4096    -6.1694    -0.0515 C.2     
  14 C14            3.4350    -7.6344    -0.0756 C.3     
  15 C15            2.4617    -8.7241     0.3870 C.3     
  16 N16            1.1723    -8.5444    -0.2975 N.am    
  17 C17            0.4154    -7.3062    -0.0384 C.3     
  18 C18            0.6971    -9.4825    -1.1404 C.2     
  19 C19           -0.6569    -9.3421    -1.7143 C.ar    
  20 O20            1.3826   -10.4443    -1.4285 O.2     
  21 C21           -0.9146    -9.7765    -3.0163 C.ar    
  22 C22           -2.1799    -9.6435    -3.5467 C.ar    
  23 C23           -3.1958    -9.0796    -2.7901 C.ar    
  24 C24           -2.9452    -8.6462    -1.4970 C.ar    
  25 C25           -1.6850    -8.7797    -0.9548 C.ar    
  26 F26           -4.4341    -8.9516    -3.3148 F       
  27 C27            3.9093    -7.9429    -1.4971 C.3     
  28 H28           -0.8591     1.9258    -0.0614 H       
  29 H29           -0.8495    -0.5356    -0.0568 H       
  30 H30            3.4241    -0.5115    -0.0496 H       
  31 H31            3.4060     1.9499    -0.0493 H       
  32 H32            1.2665     3.1666    -0.0531 H       
  33 H33            3.1294    -2.3845    -0.9404 H       
  34 H34            3.1267    -2.3841     0.8395 H       
  35 H35            0.1775    -4.3873    -0.0549 H       
  36 H36            4.2927    -7.6032     0.5963 H       
  37 H37            2.8702    -9.7047     0.1425 H       
  38 H38            2.3156    -8.6482     1.4645 H       
  39 H39           -0.0677    -7.3630     0.9371 H       
  40 H40           -0.3329    -7.1580    -0.8169 H       
  41 H41           -0.1239   -10.2155    -3.6066 H       
  42 H42           -2.3802    -9.9788    -4.5536 H       
  43 H43           -3.7400    -8.2074    -0.9121 H       
  44 H44           -1.4910    -8.4421     0.0526 H       
  45 H45            4.5983    -7.1653    -1.8270 H       
  46 H46            4.4170    -8.9073    -1.5094 H       
  47 H47            3.0505    -7.9758    -2.1676 H       
@<TRIPOS>BOND
   1    1    2 ar
   2    1    6 ar
   3    1   28 1
   4    2    3 ar
   5    2   29 1
   6    3    4 ar
   7    3    7 1
   8    4    5 ar
   9    4   30 1
  10    5    6 ar
  11    5   31 1
  12    6   32 1
  13    7    8 1
  14    8    9 1
  15    8   33 1
  16    8   34 1
  17    9   10 1
  18    9   11 2
  19   10   13 2
  20   10   35 1
  21   11   12 1
  22   12   13 1
  23   12   14 1
  24   13   17 1
  25   14   15 1
  26   14   27 1
  27   14   36 1
  28   15   16 1
  29   15   37 1
  30   15   38 1
  31   16   17 1
  32   16   18 am
  33   17   39 1
  34   17   40 1
  35   18   19 1
  36   18   20 2
  37   19   21 ar
  38   19   25 ar
  39   21   22 ar
  40   21   41 1
  41   22   23 ar
  42   22   42 1
  43   23   24 ar
  44   23   26 1
  45   24   25 ar
  46   24   43 1
  47   25   44 1
  48   27   45 1
  49   27   46 1
  50   27   47 1

#	End of record

