#	Name: ASD09116172
#	Creating user name:	WinNT
#	Creation time:	15. 06. 2019 21:20

#	Modifying user name:	WinNT
#	Modification time:	15. 06. 2019 21:20

#	Program:	/corina/corina34_cracker 3.40 0067  02.08.2006

@<TRIPOS>MOLECULE
ASD09116172
  86   94    0    0    0
SMALL
NO_CHARGES


@<TRIPOS>ATOM
   1 N1             0.0301     1.3293    -0.1809 N.2     
   2 C2             0.0635    -0.0875    -0.5847 C.3     
   3 C3             1.2691     1.7404    -0.1754 C.2     
   4 N4             2.1422     0.7744    -0.5269 N.2     
   5 C5             1.5413    -0.3560    -0.7929 C.2     
   6 N6             1.6455     3.0267     0.1548 N.pl3   
   7 C7             3.0037     3.3567     0.2491 C.ar    
   8 C8             3.9238     2.3995     0.6542 C.ar    
   9 C9             3.4301     4.6399    -0.0683 C.ar    
  10 C10            4.7700     4.9652     0.0248 C.ar    
  11 C11            5.6905     4.0070     0.4363 C.ar    
  12 C12            5.2635     2.7241     0.7479 C.ar    
  13 N13            2.1197    -1.5259    -1.1760 N.pl3   
  14 C14           -0.4873    -0.9653     0.5095 C.ar    
  15 C15           -1.0514    -0.3787     1.6238 C.ar    
  16 N16           -0.4232    -2.2835     0.3762 N.ar    
  17 C17           -0.8890    -3.0694     1.3015 C.ar    
  18 C18           -1.4724    -2.5621     2.4685 C.ar    
  19 C19           -1.5654    -1.1910     2.6465 C.ar    
  20 C20           -0.8745    -4.5866     1.2646 C.3     
  21 C21           -0.1307    -5.0391     2.5380 C.3     
  22 C22           -0.7788    -4.3898     3.7627 C.3     
  23 N23           -1.9183    -3.5434     3.3574 N.3     
  24 C24           -2.9293    -4.3854     2.6881 C.3     
  25 C25           -2.1757    -0.6080     3.8657 C.ar    
  26 C26           -1.5029     0.3822     4.5798 C.ar    
  27 N27            7.0492     4.3356     0.5306 N.3     
  28 C28            7.5412     4.1530     1.9032 C.3     
  29 C29            9.0429     4.4449     1.9471 C.3     
  30 N30            9.2864     5.8174     1.4816 N.3     
  31 C31            8.7944     5.9999     0.1089 C.3     
  32 C32            7.2927     5.7080     0.0651 C.3     
  33 C33           -2.0760     0.9215     5.7135 C.ar    
  34 C34           -3.3155     0.4813     6.1415 C.ar    
  35 C35           -3.9877    -0.5010     5.4369 C.ar    
  36 C36           -3.4268    -1.0439     4.2988 C.ar    
  37 F37            5.1857     6.2130    -0.2841 F       
  38 C38           -2.3413    -5.0336     1.4329 C.3     
  39 C39           10.7110     6.1619     1.5805 C.3     
  40 C40           10.9502     7.6099     1.0950 C.3     
  41 C41           11.1672     6.1656     3.0715 C.3     
  42 C42           11.5284     8.3521     2.3385 C.3     
  43 C43           10.3243     8.4603     3.3233 C.3     
  44 C44           10.0851     7.0123     3.8087 C.3     
  45 C45           12.3497     7.1957     3.0105 C.3     
  46 H46           -0.4911    -0.2364    -1.5112 H       
  47 H47            0.9695     3.7021     0.3216 H       
  48 H48            3.5923     1.4007     0.8966 H       
  49 H49            2.7147     5.3832    -0.3881 H       
  50 H50            5.9782     1.9800     1.0675 H       
  51 H51            3.0828    -1.5801    -1.2782 H       
  52 H52            1.5692    -2.3059    -1.3470 H       
  53 H53           -1.0967     0.6970     1.7086 H       
  54 H54           -0.4140    -4.9745     0.3560 H       
  55 H55           -0.1898    -6.1238     2.6275 H       
  56 H56            0.9144    -4.7356     2.4758 H       
  57 H57           -1.1319    -5.1689     4.4383 H       
  58 H58           -0.0399    -3.7758     4.2776 H       
  59 H59           -3.2596    -5.1651     3.3745 H       
  60 H60           -3.7830    -3.7683     2.4081 H       
  61 H61           -0.5350     0.7264     4.2467 H       
  62 H62            7.0180     4.8375     2.5711 H       
  63 H63            7.3609     3.1260     2.2206 H       
  64 H64            9.4044     4.3383     2.9699 H       
  65 H65            9.5689     3.7428     1.3002 H       
  66 H66            8.9747     7.0270    -0.2084 H       
  67 H67            9.3176     5.3155    -0.5589 H       
  68 H68            6.9312     5.8147    -0.9577 H       
  69 H69            6.7667     6.4101     0.7120 H       
  70 H70           -1.5555     1.6885     6.2678 H       
  71 H71           -3.7600     0.9060     7.0295 H       
  72 H72           -4.9553    -0.8409     5.7757 H       
  73 H73           -3.9525    -1.8108     3.7493 H       
  74 H74           -2.9176    -4.7254     0.5605 H       
  75 H75           -2.3818    -6.1184     1.5309 H       
  76 H76           11.3116     5.4622     0.9992 H       
  77 H77           11.6699     7.6222     0.2765 H       
  78 H78           10.0107     8.0661     0.7830 H       
  79 H79           11.3858     5.1898     3.5053 H       
  80 H80           12.0615     9.2805     2.1339 H       
  81 H81           10.5779     9.1059     4.1641 H       
  82 H82            9.4426     8.8380     2.8054 H       
  83 H83            9.0858     6.6781     3.5295 H       
  84 H84           10.2211     6.9460     4.8881 H       
  85 H85           12.7044     7.4702     4.0040 H       
  86 H86           13.1625     6.8478     2.3731 H       
@<TRIPOS>BOND
   1    1    2 1
   2    1    3 2
   3    2   14 1
   4    2    5 1
   5    2   46 1
   6    3    4 1
   7    3    6 1
   8    4    5 2
   9    5   13 1
  10    6    7 1
  11    6   47 1
  12    7    8 ar
  13    7    9 ar
  14    8   12 ar
  15    8   48 1
  16    9   10 ar
  17    9   49 1
  18   10   11 ar
  19   10   37 1
  20   11   12 ar
  21   11   27 1
  22   12   50 1
  23   13   51 1
  24   13   52 1
  25   14   15 ar
  26   14   16 ar
  27   15   19 ar
  28   15   53 1
  29   16   17 ar
  30   17   18 ar
  31   17   20 1
  32   18   19 ar
  33   18   23 1
  34   19   25 1
  35   20   21 1
  36   20   38 1
  37   20   54 1
  38   21   22 1
  39   21   55 1
  40   21   56 1
  41   22   23 1
  42   22   57 1
  43   22   58 1
  44   23   24 1
  45   24   38 1
  46   24   59 1
  47   24   60 1
  48   25   26 ar
  49   25   36 ar
  50   26   33 ar
  51   26   61 1
  52   27   28 1
  53   27   32 1
  54   28   29 1
  55   28   62 1
  56   28   63 1
  57   29   30 1
  58   29   64 1
  59   29   65 1
  60   30   31 1
  61   30   39 1
  62   31   32 1
  63   31   66 1
  64   31   67 1
  65   32   68 1
  66   32   69 1
  67   33   34 ar
  68   33   70 1
  69   34   35 ar
  70   34   71 1
  71   35   36 ar
  72   35   72 1
  73   36   73 1
  74   38   74 1
  75   38   75 1
  76   39   40 1
  77   39   41 1
  78   39   76 1
  79   40   42 1
  80   40   77 1
  81   40   78 1
  82   41   44 1
  83   41   45 1
  84   41   79 1
  85   42   43 1
  86   42   45 1
  87   42   80 1
  88   43   44 1
  89   43   81 1
  90   43   82 1
  91   44   83 1
  92   44   84 1
  93   45   85 1
  94   45   86 1

#	End of record

