#	Name: ASD01910905
#	Creating user name:	WinNT
#	Creation time:	15. 06. 2019 19:56

#	Modifying user name:	WinNT
#	Modification time:	15. 06. 2019 19:56

#	Program:	/corina/corina34_cracker 3.40 0067  02.08.2006

@<TRIPOS>MOLECULE
ASD01910905
  50   54    0    0    0
SMALL
NO_CHARGES


@<TRIPOS>ATOM
   1 N1            -0.3256     0.8107    -0.1440 N.3     
   2 C2            -0.3890    -0.6221     0.2851 C.3     
   3 C3             0.5512    -0.6880     1.5285 C.3     
   4 N4            -0.1727     0.0325     2.5977 N.am    
   5 C5            -1.4389     0.5275     1.9811 C.3     
   6 C6            -0.9661     1.5910     0.9421 C.3     
   7 C7             0.2296     0.2072     3.8722 C.2     
   8 C8             1.4696    -0.4403     4.3514 C.ar    
   9 C9             2.3073    -1.1011     3.4501 C.ar    
  10 C10            3.4661    -1.7067     3.8952 C.ar    
  11 C11            3.8053    -1.6639     5.2323 C.ar    
  12 C12            2.9759    -1.0063     6.1462 C.ar    
  13 C13            1.8076    -0.3875     5.7018 C.ar    
  14 C14            3.3284    -0.9628     7.5335 C.1     
  15 O15           -0.4269     0.8970     4.6276 O.2     
  16 C16            3.6174    -0.9272     8.6708 C.1     
  17 C17            3.9699    -0.8837    10.0580 C.ar    
  18 C18            3.1489    -0.2295    10.9797 C.ar    
  19 N19            3.4738    -0.1900    12.2552 N.ar    
  20 C20            4.5730    -0.7581    12.7124 C.ar    
  21 C21            5.4392    -1.4251    11.8642 C.ar    
  22 C22            5.1418    -1.5017    10.5156 C.ar    
  23 C23            0.9978     1.2171    -0.3396 C.ar    
  24 C24            1.9453     0.3074    -0.7906 C.ar    
  25 C25            3.2519     0.7112    -0.9836 C.ar    
  26 C26            3.6175     2.0219    -0.7278 C.ar    
  27 C27            2.6746     2.9307    -0.2781 C.ar    
  28 C28            1.3656     2.5326    -0.0887 C.ar    
  29 F29            4.8963     2.4147    -0.9168 F       
  30 C30           -1.7829    -0.6570     1.0086 C.3     
  31 H31           -0.2126    -1.3651    -0.4927 H       
  32 H32            0.7220    -1.7245     1.8193 H       
  33 H33            1.4984    -0.1935     1.3133 H       
  34 H34           -2.2183     0.8445     2.6740 H       
  35 H35           -0.2446     2.2698     1.3968 H       
  36 H36           -1.8196     2.1480     0.5555 H       
  37 H37            2.0480    -1.1390     2.4024 H       
  38 H38            4.1096    -2.2166     3.1935 H       
  39 H39            4.7129    -2.1396     5.5736 H       
  40 H40            1.1631     0.1220     6.4029 H       
  41 H41            2.2404     0.2480    10.6434 H       
  42 H42            4.8010    -0.7014    13.7666 H       
  43 H43            6.3361    -1.8852    12.2520 H       
  44 H44            5.8002    -2.0161     9.8313 H       
  45 H45            1.6606    -0.7152    -0.9899 H       
  46 H46            3.9891     0.0039    -1.3340 H       
  47 H47            2.9620     3.9525    -0.0788 H       
  48 H48            0.6305     3.2418     0.2620 H       
  49 H49           -2.6055    -0.4153     0.3356 H       
  50 H50           -1.9511    -1.5939     1.5396 H       
@<TRIPOS>BOND
   1    1    2 1
   2    1   23 1
   3    1    6 1
   4    2    3 1
   5    2   30 1
   6    2   31 1
   7    3    4 1
   8    3   32 1
   9    3   33 1
  10    4    5 1
  11    4    7 am
  12    5    6 1
  13    5   30 1
  14    5   34 1
  15    6   35 1
  16    6   36 1
  17    7    8 1
  18    7   15 2
  19    8    9 ar
  20    8   13 ar
  21    9   10 ar
  22    9   37 1
  23   10   11 ar
  24   10   38 1
  25   11   12 ar
  26   11   39 1
  27   12   13 ar
  28   12   14 1
  29   13   40 1
  30   14   16 3
  31   16   17 1
  32   17   18 ar
  33   17   22 ar
  34   18   19 ar
  35   18   41 1
  36   19   20 ar
  37   20   21 ar
  38   20   42 1
  39   21   22 ar
  40   21   43 1
  41   22   44 1
  42   23   24 ar
  43   23   28 ar
  44   24   25 ar
  45   24   45 1
  46   25   26 ar
  47   25   46 1
  48   26   27 ar
  49   26   29 1
  50   27   28 ar
  51   27   47 1
  52   28   48 1
  53   30   49 1
  54   30   50 1

#	End of record

