#	Name: ASD03090225
#	Creating user name:	WinNT
#	Creation time:	15. 06. 2019 20:28

#	Modifying user name:	WinNT
#	Modification time:	15. 06. 2019 20:28

#	Program:	/corina/corina34_cracker 3.40 0067  02.08.2006

@<TRIPOS>MOLECULE
ASD03090225
  44   47    0    0    0
SMALL
NO_CHARGES


@<TRIPOS>ATOM
   1 C1            -0.4265     1.4592    -1.4798 C.ar    
   2 C2            -1.5441     2.2341    -1.1904 C.ar    
   3 C3            -2.7321     1.5886    -0.8576 C.ar    
   4 C4            -2.7453     0.1919    -0.8246 C.ar    
   5 C5            -1.5750    -0.5052    -1.1241 C.ar    
   6 N6            -0.4728     0.1443    -1.4386 N.ar    
   7 C7            -3.9844    -0.5381    -0.4761 C.2     
   8 N8            -5.7892    -3.3695     0.5648 N.pl3   
   9 C9            -4.8727    -4.3721     0.8925 C.ar    
  10 C10           -3.6445    -4.0378     1.4484 C.ar    
  11 C11           -2.7409    -5.0313     1.7711 C.ar    
  12 C12           -3.0579    -6.3575     1.5415 C.ar    
  13 C13           -4.2800    -6.6939     0.9881 C.ar    
  14 C14           -5.1903    -5.7061     0.6684 C.ar    
  15 N15           -4.0605    -1.7956    -0.0887 N.2     
  16 C16           -5.3343    -2.1192     0.1408 C.2     
  17 N17           -6.0914    -1.0730    -0.0966 N.2     
  18 N18           -5.2374    -0.0312    -0.4932 N.pl3   
  19 C19           -5.6280     1.3319    -0.8614 C.3     
  20 C20           -5.7138     2.1958     0.3985 C.3     
  21 O21           -6.0947     3.5254     0.0393 O.3     
  22 C22            0.6991     2.4212    -1.8156 C.3     
  23 C23           -0.0680     3.7429    -2.0544 C.3     
  24 O24           -1.2640     3.5623    -1.2770 O.3     
  25 C25           -4.6209    -8.1406     0.7392 C.3     
  26 F26           -3.5531    -8.9479     1.1457 F       
  27 F27           -5.7664    -8.4816     1.4663 F       
  28 F28           -4.8596    -8.3353    -0.6254 F       
  29 H29           -3.6231     2.1548    -0.6299 H       
  30 H30           -1.5727    -1.5849    -1.0995 H       
  31 H31           -6.7414    -3.5420     0.6318 H       
  32 H32           -3.3961    -3.0021     1.6277 H       
  33 H33           -1.7856    -4.7721     2.2030 H       
  34 H34           -2.3494    -7.1324     1.7944 H       
  35 H35           -6.1446    -5.9694     0.2367 H       
  36 H36           -4.8855     1.7518    -1.5400 H       
  37 H37           -6.5999     1.3108    -1.3543 H       
  38 H38           -6.4562     1.7759     1.0771 H       
  39 H39           -4.7418     2.2169     0.8914 H       
  40 H40           -6.1688     4.1298     0.7905 H       
  41 H41            1.3908     2.5183    -0.9788 H       
  42 H42            1.2236     2.1070    -2.7180 H       
  43 H43            0.5059     4.5940    -1.6879 H       
  44 H44           -0.3087     3.8642    -3.1106 H       
@<TRIPOS>BOND
   1    1    2 ar
   2    1   22 1
   3    1    6 ar
   4    2    3 ar
   5    2   24 1
   6    3    4 ar
   7    3   29 1
   8    4    5 ar
   9    4    7 1
  10    5    6 ar
  11    5   30 1
  12    7   15 2
  13    7   18 1
  14    8    9 1
  15    8   16 1
  16    8   31 1
  17    9   10 ar
  18    9   14 ar
  19   10   11 ar
  20   10   32 1
  21   11   12 ar
  22   11   33 1
  23   12   13 ar
  24   12   34 1
  25   13   14 ar
  26   13   25 1
  27   14   35 1
  28   15   16 1
  29   16   17 2
  30   17   18 1
  31   18   19 1
  32   19   20 1
  33   19   36 1
  34   19   37 1
  35   20   21 1
  36   20   38 1
  37   20   39 1
  38   21   40 1
  39   22   23 1
  40   22   41 1
  41   22   42 1
  42   23   24 1
  43   23   43 1
  44   23   44 1
  45   25   26 1
  46   25   27 1
  47   25   28 1

#	End of record

