#	Name: ASD01901150
#	Creating user name:	WinNT
#	Creation time:	15. 06. 2019 19:53

#	Modifying user name:	WinNT
#	Modification time:	15. 06. 2019 19:53

#	Program:	/corina/corina34_cracker 3.40 0067  02.08.2006

@<TRIPOS>MOLECULE
ASD01901150
  54   57    0    0    0
SMALL
NO_CHARGES


@<TRIPOS>ATOM
   1 C1            -0.0158     1.3123     0.0093 C.ar    
   2 N2             0.0021    -0.0041     0.0020 N.ar    
   3 C3             1.1316    -0.6859    -0.0125 C.ar    
   4 C4             2.3557    -0.0416    -0.0207 C.ar    
   5 C5             2.3935     1.3414    -0.0137 C.ar    
   6 C6             1.1781     2.0387     0.0018 C.ar    
   7 C7             1.1598     3.4705     0.0092 C.1     
   8 C8             1.1447     4.6444     0.0153 C.1     
   9 C9             1.1264     6.0763     0.0227 C.ar    
  10 C10            2.3268     6.7924     0.0151 C.ar    
  11 C11            2.3053     8.1721     0.0219 C.ar    
  12 C12            1.0908     8.8505     0.0367 C.ar    
  13 C13           -0.1059     8.1411     0.0447 C.ar    
  14 C14           -0.0921     6.7613     0.0318 C.ar    
  15 N15            1.0728    10.2529     0.0439 N.am    
  16 C16            1.0534    10.9204    -1.1217 C.2     
  17 N17            0.7973    12.2376    -1.1737 N.am    
  18 C18            0.4068    12.9763     0.0286 C.3     
  19 C19            1.1562    12.4153     1.2393 C.3     
  20 C20            1.0697    10.9095     1.2184 C.2     
  21 O21            1.2733    10.3177    -2.1540 O.2     
  22 F22            3.4651     8.8650     0.0145 F       
  23 O23            1.0011    10.2910     2.2589 O.2     
  24 F24           -1.2831     8.8039     0.0596 F       
  25 C25            0.9106    12.9455    -2.4513 C.3     
  26 C26            0.7591    14.4546    -0.1489 C.3     
  27 C27           -1.0776    12.8369     0.2480 C.ar    
  28 C28           -1.8382    12.0853    -0.6281 C.ar    
  29 C29           -1.6777    13.4559     1.3285 C.ar    
  30 C30           -3.0393    13.3280     1.5298 C.ar    
  31 C31           -3.8009    12.5815     0.6502 C.ar    
  32 C32           -3.1998    11.9574    -0.4268 C.ar    
  33 C33           -0.4372    12.9112    -3.1747 C.3     
  34 H34           -0.9608     1.8351     0.0166 H       
  35 H35            1.1000    -1.7654    -0.0176 H       
  36 H36            3.2725    -0.6123    -0.0322 H       
  37 H37            3.3354     1.8699    -0.0195 H       
  38 H38            3.2700     6.2664     0.0044 H       
  39 H39           -1.0216     6.2112     0.0332 H       
  40 H40            2.2006    12.7242     1.1963 H       
  41 H41            0.7015    12.7919     2.1555 H       
  42 H42            1.1987    13.9807    -2.2688 H       
  43 H43            1.6669    12.4613    -3.0691 H       
  44 H44            1.8328    14.5558    -0.3072 H       
  45 H45            0.2254    14.8543    -1.0112 H       
  46 H46            0.4700    15.0069     0.7453 H       
  47 H47           -1.3687    11.5983    -1.4700 H       
  48 H48           -1.0827    14.0391     2.0157 H       
  49 H49           -3.5081    13.8111     2.3744 H       
  50 H50           -4.8647    12.4813     0.8077 H       
  51 H51           -3.7941    11.3705    -1.1115 H       
  52 H52           -0.7254    11.8759    -3.3572 H       
  53 H53           -1.1936    13.3953    -2.5569 H       
  54 H54           -0.3529    13.4379    -4.1253 H       
@<TRIPOS>BOND
   1    1    2 ar
   2    1    6 ar
   3    1   34 1
   4    2    3 ar
   5    3    4 ar
   6    3   35 1
   7    4    5 ar
   8    4   36 1
   9    5    6 ar
  10    5   37 1
  11    6    7 1
  12    7    8 3
  13    8    9 1
  14    9   10 ar
  15    9   14 ar
  16   10   11 ar
  17   10   38 1
  18   11   12 ar
  19   11   22 1
  20   12   13 ar
  21   12   15 1
  22   13   14 ar
  23   13   24 1
  24   14   39 1
  25   15   16 am
  26   15   20 am
  27   16   17 am
  28   16   21 2
  29   17   25 1
  30   17   18 1
  31   18   19 1
  32   18   26 1
  33   18   27 1
  34   19   20 1
  35   19   40 1
  36   19   41 1
  37   20   23 2
  38   25   33 1
  39   25   42 1
  40   25   43 1
  41   26   44 1
  42   26   45 1
  43   26   46 1
  44   27   29 ar
  45   27   28 ar
  46   28   32 ar
  47   28   47 1
  48   29   30 ar
  49   29   48 1
  50   30   31 ar
  51   30   49 1
  52   31   32 ar
  53   31   50 1
  54   32   51 1
  55   33   52 1
  56   33   53 1
  57   33   54 1

#	End of record

