#	Name: ASD00191047
#	Creating user name:	WinNT
#	Creation time:	15. 06. 2019 18:33

#	Modifying user name:	WinNT
#	Modification time:	15. 06. 2019 18:33

#	Program:	/corina/corina34_cracker 3.40 0067  02.08.2006

@<TRIPOS>MOLECULE
ASD00191047
  46   49    0    0    0
SMALL
NO_CHARGES


@<TRIPOS>ATOM
   1 C1            -0.0323     1.4022     0.4027 C.ar    
   2 C2            -0.0148    -0.0124     0.4159 C.ar    
   3 N3            -1.1506    -0.6964     0.2293 N.ar    
   4 C4            -2.2995    -0.0801     0.0311 C.ar    
   5 C5            -2.3888     1.3151     0.0055 C.ar    
   6 C6            -1.2612     2.0733     0.1856 C.ar    
   7 C7             1.1597     2.1125     0.5976 C.ar    
   8 C8             2.3243     1.4333     0.7980 C.ar    
   9 C9             2.3449     0.0413     0.8117 C.ar    
  10 C10            1.2042    -0.6789     0.6259 C.ar    
  11 C11           -3.3606    -2.2262    -0.2714 C.ar    
  12 C12           -4.3728    -3.0314     0.2350 C.ar    
  13 C13           -4.2858    -4.4046     0.1159 C.ar    
  14 C14           -3.1912    -4.9784    -0.5068 C.ar    
  15 C15           -2.1813    -4.1786    -1.0122 C.ar    
  16 C16           -2.2633    -2.8049    -0.8963 C.ar    
  17 N17           -1.3231     3.4633     0.1650 N.am    
  18 C18           -2.2432     4.0856    -0.5983 C.2     
  19 C19           -2.2373     5.5884    -0.7106 C.3     
  20 O20           -3.0758     3.4363    -1.1948 O.2     
  21 C21           -3.3781     6.0526    -1.6330 C.3     
  22 C22           -4.2960     6.9525    -0.7802 C.3     
  23 C23           -3.3775     7.4614     0.3584 C.3     
  24 C24           -2.5018     6.2226     0.6707 C.3     
  25 N25           -3.4488    -0.8354    -0.1573 N.pl3   
  26 Cl26          -3.0846    -6.7049    -0.6537 Cl      
  27 H27           -3.3428     1.7938    -0.1592 H       
  28 H28            1.1557     3.1924     0.5886 H       
  29 H29            3.2426     1.9818     0.9477 H       
  30 H30            3.2798    -0.4752     0.9720 H       
  31 H31            1.2364    -1.7583     0.6396 H       
  32 H32           -5.2269    -2.5841     0.7216 H       
  33 H33           -5.0725    -5.0311     0.5094 H       
  34 H34           -1.3281    -4.6291    -1.4973 H       
  35 H35           -1.4751    -2.1811    -1.2912 H       
  36 H36           -0.7041     3.9843     0.7000 H       
  37 H37           -1.2787     5.9296    -1.1015 H       
  38 H38           -2.9732     6.6197    -2.4712 H       
  39 H39           -3.9359     5.1908    -1.9995 H       
  40 H40           -4.6680     7.7884    -1.3727 H       
  41 H41           -5.1249     6.3742    -0.3721 H       
  42 H42           -2.7620     8.2931     0.0157 H       
  43 H43           -3.9657     7.7483     1.2301 H       
  44 H44           -3.0410     5.5264     1.3131 H       
  45 H45           -1.5644     6.5258     1.1370 H       
  46 H46           -4.3132    -0.3983    -0.2099 H       
@<TRIPOS>BOND
   1    1    2 ar
   2    1    7 ar
   3    1    6 ar
   4    2    3 ar
   5    2   10 ar
   6    3    4 ar
   7    4    5 ar
   8    4   25 1
   9    5    6 ar
  10    5   27 1
  11    6   17 1
  12    7    8 ar
  13    7   28 1
  14    8    9 ar
  15    8   29 1
  16    9   10 ar
  17    9   30 1
  18   10   31 1
  19   11   12 ar
  20   11   16 ar
  21   11   25 1
  22   12   13 ar
  23   12   32 1
  24   13   14 ar
  25   13   33 1
  26   14   15 ar
  27   14   26 1
  28   15   16 ar
  29   15   34 1
  30   16   35 1
  31   17   18 am
  32   17   36 1
  33   18   19 1
  34   18   20 2
  35   19   21 1
  36   19   24 1
  37   19   37 1
  38   21   22 1
  39   21   38 1
  40   21   39 1
  41   22   23 1
  42   22   40 1
  43   22   41 1
  44   23   24 1
  45   23   42 1
  46   23   43 1
  47   24   44 1
  48   24   45 1
  49   25   46 1

#	End of record

