#	Name: ASD05250007
#	Creating user name:	WinNT
#	Creation time:	15. 06. 2019 20:57

#	Modifying user name:	WinNT
#	Modification time:	15. 06. 2019 20:57

#	Program:	/corina/corina34_cracker 3.40 0067  02.08.2006

@<TRIPOS>MOLECULE
ASD05250007
  47   50    0    0    0
SMALL
NO_CHARGES


@<TRIPOS>ATOM
   1 C1            -0.0094     1.3599     0.0069 C.ar    
   2 C2             0.0145    -0.0272    -0.0131 C.ar    
   3 C3             1.2150    -0.7057    -0.0353 C.ar    
   4 C4             2.4083     0.0019    -0.0381 C.ar    
   5 C5             2.3902     1.4080    -0.0183 C.ar    
   6 C6             1.1637     2.0795     0.0045 C.ar    
   7 N7             3.7401    -0.3662    -0.0574 N.pl3   
   8 C8             4.4790     0.7864    -0.0492 C.2     
   9 N9             3.6797     1.8255    -0.0262 N.2     
  10 C10            5.9548     0.8498    -0.0630 C.ar    
  11 C11            6.7081    -0.3213     0.0224 C.ar    
  12 C12            8.0859    -0.2560     0.0086 C.ar    
  13 C13            8.7264     0.9675    -0.0898 C.ar    
  14 C14            7.9930     2.1351    -0.1746 C.ar    
  15 C15            6.6064     2.0870    -0.1679 C.ar    
  16 N16            5.8642     3.2646    -0.2534 N.am    
  17 C17            6.3201     4.3921     0.3273 C.2     
  18 C18            5.5962     5.6668     0.1361 C.ar    
  19 O19            7.3266     4.3610     1.0083 O.2     
  20 C20            6.0664     6.8354     0.7364 C.ar    
  21 C21            5.3851     8.0274     0.5546 C.ar    
  22 C22            4.2363     8.0606    -0.2226 C.ar    
  23 C23            3.7653     6.9011    -0.8212 C.ar    
  24 C24            4.4439     5.7059    -0.6498 C.ar    
  25 C25            1.9927     8.2059    -1.7202 C.3     
  26 O26            2.6392     6.9391    -1.5812 O.3     
  27 O27            5.8422     9.1662     1.1388 O.3     
  28 C28            5.0907    10.3598     0.9095 C.3     
  29 H29           -0.9563     1.8792     0.0200 H       
  30 H30           -0.9136    -0.5795    -0.0110 H       
  31 H31            1.2262    -1.7856    -0.0501 H       
  32 H32            1.1372     3.1590     0.0199 H       
  33 H33            4.0868    -1.2721    -0.0732 H       
  34 H34            6.2130    -1.2781     0.0997 H       
  35 H35            8.6677    -1.1634     0.0751 H       
  36 H36            9.8055     1.0093    -0.0999 H       
  37 H37            8.4995     3.0859    -0.2507 H       
  38 H38            5.0199     3.2721    -0.7308 H       
  39 H39            6.9602     6.8103     1.3421 H       
  40 H40            3.7070     8.9917    -0.3617 H       
  41 H41            4.0766     4.8038    -1.1162 H       
  42 H42            1.1096     8.0960    -2.3495 H       
  43 H43            1.6952     8.5717    -0.7374 H       
  44 H44            2.6801     8.9162    -2.1795 H       
  45 H45            5.0609    10.5707    -0.1595 H       
  46 H46            4.0750    10.2269     1.2820 H       
  47 H47            5.5630    11.1923     1.4310 H       
@<TRIPOS>BOND
   1    1    2 ar
   2    1    6 ar
   3    1   29 1
   4    2    3 ar
   5    2   30 1
   6    3    4 ar
   7    3   31 1
   8    4    5 ar
   9    4    7 1
  10    5    6 ar
  11    5    9 1
  12    6   32 1
  13    7    8 1
  14    7   33 1
  15    8    9 2
  16    8   10 1
  17   10   11 ar
  18   10   15 ar
  19   11   12 ar
  20   11   34 1
  21   12   13 ar
  22   12   35 1
  23   13   14 ar
  24   13   36 1
  25   14   15 ar
  26   14   37 1
  27   15   16 1
  28   16   17 am
  29   16   38 1
  30   17   18 1
  31   17   19 2
  32   18   20 ar
  33   18   24 ar
  34   20   21 ar
  35   20   39 1
  36   21   22 ar
  37   21   27 1
  38   22   23 ar
  39   22   40 1
  40   23   24 ar
  41   23   26 1
  42   24   41 1
  43   25   26 1
  44   25   42 1
  45   25   43 1
  46   25   44 1
  47   27   28 1
  48   28   45 1
  49   28   46 1
  50   28   47 1

#	End of record

