#	Name: ASD01200344
#	Creating user name:	WinNT
#	Creation time:	15. 06. 2019 19:09

#	Modifying user name:	WinNT
#	Modification time:	15. 06. 2019 19:09

#	Program:	/corina/corina34_cracker 3.40 0067  02.08.2006

@<TRIPOS>MOLECULE
ASD01200344
  61   64    0    0    0
SMALL
NO_CHARGES


@<TRIPOS>ATOM
   1 C1            -0.0167     1.3780     0.0096 C.ar    
   2 C2             0.0021    -0.0041     0.0020 C.ar    
   3 C3             1.2083    -0.6792    -0.0132 C.ar    
   4 C4             2.3967     0.0287    -0.0208 C.ar    
   5 C5             2.3773     1.4123    -0.0131 C.ar    
   6 C6             1.1709     2.0861     0.0021 C.ar    
   7 C7             1.1495     3.5929     0.0104 C.3     
   8 C8             1.8754     4.1063     1.2556 C.3     
   9 C9             1.8410     4.1119    -1.2239 C.2     
  10 C10            1.7465     5.6291     1.3295 C.3     
  11 C11            0.4607     7.4440     2.2834 C.3     
  12 C12            0.2897     6.0342     1.6651 C.3     
  13 C13            2.5744     6.1845     2.5068 C.3     
  14 C14            1.7569     7.3384     3.1133 C.3     
  15 C15            1.2238     4.4618    -2.3634 C.2     
  16 N16            3.1913     4.3021    -1.3473 N.pl3   
  17 C17            2.2651     4.9065    -3.2912 C.ar    
  18 C18            2.2637     5.3831    -4.6038 C.ar    
  19 C19            3.4859     4.7856    -2.5995 C.ar    
  20 N20            4.6198     5.1240    -3.1984 N.ar    
  21 C21            4.6408     5.5725    -4.4356 C.ar    
  22 C22            3.4774     5.7165    -5.1755 C.ar    
  23 P23            1.2327    -2.4930    -0.0225 P.3     
  24 O24            1.2251    -3.0219    -1.5431 O.3     
  25 O25            2.5617    -3.0156     0.7208 O.3     
  26 C26            1.1360    -4.4066    -1.8851 C.3     
  27 C27            2.8214    -4.3986     0.9697 C.3     
  28 O28            0.0379    -3.0061     0.6843 O.2     
  29 C29            1.1544    -4.5581    -3.4074 C.3     
  30 C30            4.1636    -4.5440     1.6896 C.3     
  31 Cl31           3.9119    -0.8184    -0.0393 Cl      
  32 H32           -0.9593     1.9050     0.0170 H       
  33 H33           -0.9258    -0.5566     0.0083 H       
  34 H34            3.3049     1.9655    -0.0187 H       
  35 H35            0.1169     3.9416     0.0222 H       
  36 H36            1.4306     3.6604     2.1452 H       
  37 H37            2.9292     3.8331     1.2004 H       
  38 H38            2.0646     6.0839     0.3914 H       
  39 H39            0.5696     8.1936     1.4996 H       
  40 H40           -0.3858     7.6836     2.9268 H       
  41 H41           -0.3166     6.0800     0.7605 H       
  42 H42           -0.1458     5.3452     2.3888 H       
  43 H43            2.7315     5.4057     3.2530 H       
  44 H44            3.5337     6.5557     2.1463 H       
  45 H45            2.3194     8.2697     3.0471 H       
  46 H46            1.5172     7.1196     4.1538 H       
  47 H47            0.1623     4.4226    -2.5584 H       
  48 H48            3.8441     4.1220    -0.6528 H       
  49 H49            1.3415     5.4878    -5.1562 H       
  50 H50            5.5868     5.8369    -4.8844 H       
  51 H51            3.5186     6.0884    -6.1886 H       
  52 H52            1.9831    -4.9419    -1.4563 H       
  53 H53            0.2077    -4.8193    -1.4901 H       
  54 H54            2.0281    -4.8108     1.5934 H       
  55 H55            2.8565    -4.9378     0.0231 H       
  56 H56            1.0865    -5.6143    -3.6683 H       
  57 H57            0.3073    -4.0228    -3.8362 H       
  58 H58            2.0827    -4.1453    -3.8024 H       
  59 H59            4.1285    -4.0048     2.6362 H       
  60 H60            4.3617    -5.5989     1.8794 H       
  61 H61            4.9569    -4.1318     1.0659 H       
@<TRIPOS>BOND
   1    1    2 ar
   2    1    6 ar
   3    1   32 1
   4    2    3 ar
   5    2   33 1
   6    3    4 ar
   7    3   23 1
   8    4    5 ar
   9    4   31 1
  10    5    6 ar
  11    5   34 1
  12    6    7 1
  13    7    8 1
  14    7    9 1
  15    7   35 1
  16    8   10 1
  17    8   36 1
  18    8   37 1
  19    9   16 1
  20    9   15 2
  21   10   13 1
  22   10   12 1
  23   10   38 1
  24   11   12 1
  25   11   14 1
  26   11   39 1
  27   11   40 1
  28   12   41 1
  29   12   42 1
  30   13   14 1
  31   13   43 1
  32   13   44 1
  33   14   45 1
  34   14   46 1
  35   15   17 1
  36   15   47 1
  37   16   19 1
  38   16   48 1
  39   17   19 ar
  40   17   18 ar
  41   18   22 ar
  42   18   49 1
  43   19   20 ar
  44   20   21 ar
  45   21   22 ar
  46   21   50 1
  47   22   51 1
  48   23   24 1
  49   23   28 2
  50   23   25 1
  51   24   26 1
  52   25   27 1
  53   26   29 1
  54   26   52 1
  55   26   53 1
  56   27   30 1
  57   27   54 1
  58   27   55 1
  59   29   56 1
  60   29   57 1
  61   29   58 1
  62   30   59 1
  63   30   60 1
  64   30   61 1

#	End of record

