#	Name: ASD01915019
#	Creating user name:	WinNT
#	Creation time:	15. 06. 2019 20:04

#	Modifying user name:	WinNT
#	Modification time:	15. 06. 2019 20:04

#	Program:	/corina/corina34_cracker 3.40 0067  02.08.2006

@<TRIPOS>MOLECULE
ASD01915019
  40   42    0    0    0
SMALL
NO_CHARGES


@<TRIPOS>ATOM
   1 N1            -0.0158     1.3137     0.0093 N.ar    
   2 C2             0.0021    -0.0041     0.0020 C.ar    
   3 C3             1.2068    -0.7100    -0.0129 C.ar    
   4 C4             2.4092     0.0042    -0.0198 C.ar    
   5 C5             2.3399     1.3953    -0.0117 C.ar    
   6 C6             3.5630     2.2247    -0.0172 C.2     
   7 N7             3.4779     3.5196     0.3500 N.am    
   8 C8             2.2138     4.0918     0.8056 C.3     
   9 C9             1.0385     3.5319     0.0083 C.3     
  10 C10            1.0923     2.0255     0.0025 C.ar    
  11 O11            4.6305     1.7465    -0.3477 O.2     
  12 C12            1.2111    -2.1884    -0.0208 C.2     
  13 C13            0.0651    -2.8545    -0.0137 C.2     
  14 C14            4.6726     4.3655     0.2914 C.3     
  15 C15            4.7629     5.0138    -1.0660 C.ar    
  16 C16            4.1652     6.2411    -1.2859 C.ar    
  17 C17            4.2467     6.8375    -2.5293 C.ar    
  18 C18            4.9288     6.2039    -3.5578 C.ar    
  19 C19            5.5277     4.9726    -3.3347 C.ar    
  20 C20            5.4482     4.3830    -2.0879 C.ar    
  21 O21            5.0100     6.7884    -4.7820 O.3     
  22 C22            5.7281     6.0788    -5.7934 C.3     
  23 H23           -0.9313    -0.5474     0.0081 H       
  24 H24            3.3608    -0.5065    -0.0307 H       
  25 H25            2.0745     3.8568     1.8608 H       
  26 H26            2.2462     5.1743     0.6824 H       
  27 H27            0.1037     3.8589     0.4636 H       
  28 H28            1.0883     3.8998    -1.0165 H       
  29 H29            2.1479    -2.7256    -0.0323 H       
  30 H30            0.0683    -3.9345    -0.0194 H       
  31 H31           -0.8717    -2.3173    -0.0021 H       
  32 H32            4.6096     5.1368     1.0590 H       
  33 H33            5.5590     3.7546     0.4620 H       
  34 H34            3.6340     6.7337    -0.4849 H       
  35 H35            3.7793     7.7959    -2.7006 H       
  36 H36            6.0593     4.4774    -4.1338 H       
  37 H37            5.9183     3.4266    -1.9123 H       
  38 H38            5.2570     5.1104    -5.9618 H       
  39 H39            5.7164     6.6544    -6.7190 H       
  40 H40            6.7586     5.9303    -5.4709 H       
@<TRIPOS>BOND
   1    1    2 ar
   2    1   10 ar
   3    2    3 ar
   4    2   23 1
   5    3    4 ar
   6    3   12 1
   7    4    5 ar
   8    4   24 1
   9    5    6 1
  10    5   10 ar
  11    6    7 am
  12    6   11 2
  13    7    8 1
  14    7   14 1
  15    8    9 1
  16    8   25 1
  17    8   26 1
  18    9   10 1
  19    9   27 1
  20    9   28 1
  21   12   13 2
  22   12   29 1
  23   13   30 1
  24   13   31 1
  25   14   15 1
  26   14   32 1
  27   14   33 1
  28   15   16 ar
  29   15   20 ar
  30   16   17 ar
  31   16   34 1
  32   17   18 ar
  33   17   35 1
  34   18   19 ar
  35   18   21 1
  36   19   20 ar
  37   19   36 1
  38   20   37 1
  39   21   22 1
  40   22   38 1
  41   22   39 1
  42   22   40 1

#	End of record

