#	Name: ASD07930047
#	Creating user name:	WinNT
#	Creation time:	15. 06. 2019 21:11

#	Modifying user name:	WinNT
#	Modification time:	15. 06. 2019 21:11

#	Program:	/corina/corina34_cracker 3.40 0067  02.08.2006

@<TRIPOS>MOLECULE
ASD07930047
  48   50    0    0    0
SMALL
NO_CHARGES


@<TRIPOS>ATOM
   1 C1            -0.0267     1.5824    -0.0183 C.3     
   2 C2            -0.7273     1.8331    -1.3696 C.3     
   3 C3             0.0123     0.0467     0.1345 C.3     
   4 C4            -1.0526     0.4278    -1.9196 C.3     
   5 C5             1.3724     2.1417    -0.0423 C.ar    
   6 C6             3.7385     1.8236     0.1570 C.ar    
   7 C7             3.9404     3.1712    -0.0870 C.ar    
   8 C8             2.8592     4.0017    -0.3140 C.ar    
   9 C9             2.4529     1.3095     0.1791 C.ar    
  10 C10            1.5752     3.4876    -0.2918 C.ar    
  11 Cl11           0.2177     4.5313    -0.5775 Cl      
  12 F12            4.7950     1.0112     0.3784 F       
  13 N13           -0.0728    -0.4701    -1.2557 N.3     
  14 C14           -0.8479    -2.2728    -2.6890 C.ar    
  15 C15            0.1389    -2.8375    -3.4752 C.ar    
  16 C16           -0.1452    -3.2188    -4.7732 C.ar    
  17 C17           -1.4163    -3.0358    -5.2848 C.ar    
  18 C18           -2.4034    -2.4719    -4.4982 C.ar    
  19 C19           -2.1188    -2.0893    -3.2007 C.ar    
  20 C20           -0.5397    -1.8628    -1.2719 C.3     
  21 C21           -1.9953     2.6210    -1.1636 C.2     
  22 O22           -2.9216     2.1290    -0.5639 O.2     
  23 O23           -2.0956     3.8695    -1.6464 O.3     
  24 C24           -3.2732     5.9663    -2.0294 C.3     
  25 C25           -3.3460     4.5689    -1.4106 C.3     
  26 N26           -0.7952     2.1832     1.0748 N.pl3   
  27 O27           -0.4609     3.2608     1.5338 O.2     
  28 O28           -1.7684     1.6051     1.5245 O.2     
  29 H29           -0.0591     2.3607    -2.0503 H       
  30 H30            0.9473    -0.2654     0.5996 H       
  31 H31           -0.8390    -0.2987     0.7212 H       
  32 H32           -2.0705     0.1420    -1.6543 H       
  33 H33           -0.9193     0.4026    -3.0011 H       
  34 H34            4.9426     3.5736    -0.0997 H       
  35 H35            3.0166     5.0531    -0.5040 H       
  36 H36            2.2947     0.2583     0.3698 H       
  37 H37            1.1320    -2.9804    -3.0756 H       
  38 H38            0.6259    -3.6593    -5.3877 H       
  39 H39           -1.6382    -3.3330    -6.2991 H       
  40 H40           -3.3963    -2.3283    -4.8982 H       
  41 H41           -2.8898    -1.6481    -2.5865 H       
  42 H42            0.2371    -2.5113    -0.8669 H       
  43 H43           -1.4402    -1.9512    -0.6641 H       
  44 H44           -2.4540     6.5230    -1.5743 H       
  45 H45           -3.1018     5.8800    -3.1024 H       
  46 H46           -4.2118     6.4914    -1.8525 H       
  47 H47           -4.1651     4.0122    -1.8658 H       
  48 H48           -3.5173     4.6552    -0.3376 H       
@<TRIPOS>BOND
   1    1    3 1
   2    1    5 1
   3    1   26 1
   4    1    2 1
   5    2    4 1
   6    2   21 1
   7    2   29 1
   8    3   13 1
   9    3   30 1
  10    3   31 1
  11    4   13 1
  12    4   32 1
  13    4   33 1
  14    5    9 ar
  15    5   10 ar
  16    6    7 ar
  17    6   12 1
  18    6    9 ar
  19    7    8 ar
  20    7   34 1
  21    8   10 ar
  22    8   35 1
  23    9   36 1
  24   10   11 1
  25   13   20 1
  26   14   15 ar
  27   14   19 ar
  28   14   20 1
  29   15   16 ar
  30   15   37 1
  31   16   17 ar
  32   16   38 1
  33   17   18 ar
  34   17   39 1
  35   18   19 ar
  36   18   40 1
  37   19   41 1
  38   20   42 1
  39   20   43 1
  40   21   22 2
  41   21   23 1
  42   23   25 1
  43   24   25 1
  44   24   44 1
  45   24   45 1
  46   24   46 1
  47   25   47 1
  48   25   48 1
  49   26   27 2
  50   26   28 2

#	End of record

