#	Name: ASD04590761
#	Creating user name:	WinNT
#	Creation time:	15. 06. 2019 20:51

#	Modifying user name:	WinNT
#	Modification time:	15. 06. 2019 20:51

#	Program:	/corina/corina34_cracker 3.40 0067  02.08.2006

@<TRIPOS>MOLECULE
ASD04590761
  37   39    0    0    0
SMALL
NO_CHARGES


@<TRIPOS>ATOM
   1 N1            -0.0159     1.3198     0.0093 N.ar    
   2 C2             0.0021    -0.0041     0.0020 C.ar    
   3 N3             1.1375    -0.6866    -0.0125 N.ar    
   4 C4             2.3068    -0.0567    -0.0203 C.ar    
   5 C5             2.3229     1.3452    -0.0129 C.ar    
   6 C6             1.1110     2.0177     0.0023 C.ar    
   7 N7             3.4929    -0.7743    -0.0350 N.pl3   
   8 C8             4.1240     2.3794     1.1449 C.2     
   9 N9             3.5370     2.0508    -0.0202 N.am    
  10 C10            3.4628    -2.2390    -0.0421 C.3     
  11 C11            4.7562    -2.7897    -0.6680 C.3     
  12 C12            5.4449    -3.6396     0.4197 C.3     
  13 C13            4.2919    -4.0469     1.3703 C.3     
  14 C14            3.4108    -2.7735     1.4041 C.3     
  15 N15           -1.1991    -0.6943     0.0102 N.pl3   
  16 N16            5.2877     3.0554     1.1669 N.am    
  17 C17            5.8863     3.4161     0.0139 C.2     
  18 C18            5.2806     3.0762    -1.2192 C.2     
  19 C19            4.1126     2.3975    -1.2127 C.2     
  20 O20            6.9389     4.0284     0.0333 O.2     
  21 O21            3.5932     2.0657     2.1929 O.2     
  22 H22            1.0851     3.0973     0.0080 H       
  23 H23            4.3427    -0.3066    -0.0406 H       
  24 H24            2.5971    -2.5917    -0.6027 H       
  25 H25            4.5181    -3.4104    -1.5318 H       
  26 H26            5.4062    -1.9672    -0.9664 H       
  27 H27            5.9057    -4.5234    -0.0216 H       
  28 H28            6.1880    -3.0470     0.9533 H       
  29 H29            3.7354    -4.8910     0.9631 H       
  30 H30            4.6743    -4.2784     2.3644 H       
  31 H31            3.8253    -2.0410     2.0967 H       
  32 H32            2.3871    -3.0251     1.6812 H       
  33 H33           -2.0381    -0.2077     0.0212 H       
  34 H34           -1.2011    -1.6643     0.0051 H       
  35 H35            5.6973     3.2843     2.0159 H       
  36 H36            5.7451     3.3569    -2.1529 H       
  37 H37            3.6356     2.1294    -2.1438 H       
@<TRIPOS>BOND
   1    1    2 ar
   2    1    6 ar
   3    2    3 ar
   4    2   15 1
   5    3    4 ar
   6    4    5 ar
   7    4    7 1
   8    5    6 ar
   9    5    9 1
  10    6   22 1
  11    7   10 1
  12    7   23 1
  13    8    9 am
  14    8   16 am
  15    8   21 2
  16    9   19 1
  17   10   11 1
  18   10   14 1
  19   10   24 1
  20   11   12 1
  21   11   25 1
  22   11   26 1
  23   12   13 1
  24   12   27 1
  25   12   28 1
  26   13   14 1
  27   13   29 1
  28   13   30 1
  29   14   31 1
  30   14   32 1
  31   15   33 1
  32   15   34 1
  33   16   17 am
  34   16   35 1
  35   17   18 1
  36   17   20 2
  37   18   19 2
  38   18   36 1
  39   19   37 1

#	End of record

