#	Name: ASD03331986
#	Creating user name:	WinNT
#	Creation time:	15. 06. 2019 20:40

#	Modifying user name:	WinNT
#	Modification time:	15. 06. 2019 20:40

#	Program:	/corina/corina34_cracker 3.40 0067  02.08.2006

@<TRIPOS>MOLECULE
ASD03331986
  64   66    0    0    0
SMALL
NO_CHARGES


@<TRIPOS>ATOM
   1 C1            -0.8410     1.9925     0.7705 C.2     
   2 N2            -1.0819     0.6617     0.7796 N.pl3   
   3 C3             0.1252     0.0249     0.7554 C.2     
   4 N4             1.0756     0.9307     0.7514 N.2     
   5 C5             0.5126     2.1567     0.7635 C.2     
   6 C6             1.2320     3.4432     0.7684 C.2     
   7 O7             0.6094     4.4879     0.7792 O.2     
   8 N8             2.5796     3.4619     0.7610 N.am    
   9 C9             3.2945     4.7405     0.7659 C.3     
  10 C10            3.4256     5.2570    -0.6684 C.3     
  11 C11            4.2822     4.2862    -1.4837 C.3     
  12 C12            4.6670     4.5465     1.3573 C.2     
  13 C13            2.0365     5.3657    -1.3003 C.3     
  14 C14            4.0893     6.6355    -0.6554 C.3     
  15 O15            5.0942     3.4268     1.5437 O.2     
  16 N16            5.4196     5.6171     1.6791 N.am    
  17 C17            6.7818     5.4297     2.1847 C.3     
  18 C18           -2.4070     0.0373     0.8256 C.3     
  19 C19           -3.3167     0.7120    -0.2056 C.3     
  20 C20           -3.9935     1.9270     0.4210 C.3     
  21 N21           -3.1117     2.5757     1.3938 N.3     
  22 C22           -1.8869     3.0771     0.7533 C.3     
  23 C23           -3.8135     3.6533     2.1039 C.3     
  24 C24            0.3283    -1.4387     0.7371 C.ar    
  25 C25            1.0832    -2.0364    -0.2898 C.ar    
  26 C26            1.2662    -3.4189    -0.2938 C.ar    
  27 C27            0.7089    -4.1912     0.7046 C.ar    
  28 C28           -0.0339    -3.6026     1.7150 C.ar    
  29 C29           -0.2215    -2.2355     1.7396 C.ar    
  30 C30            1.6768    -1.2052    -1.3559 C.2     
  31 O31            1.4377    -0.0141    -1.4022 O.2     
  32 N32            2.4838    -1.7669    -2.2777 N.am    
  33 H33            3.0761     2.6286     0.7524 H       
  34 H34            2.7404     5.4644     1.3634 H       
  35 H35            3.8095     3.3042    -1.4929 H       
  36 H36            4.3756     4.6542    -2.5054 H       
  37 H37            5.2719     4.2088    -1.0335 H       
  38 H38            1.4262     6.0573    -0.7194 H       
  39 H39            2.1299     5.7336    -2.3220 H       
  40 H40            1.5637     4.3836    -1.3095 H       
  41 H41            5.0623     6.5658    -0.1691 H       
  42 H42            4.2191     6.9859    -1.6793 H       
  43 H43            3.4592     7.3369    -0.1084 H       
  44 H44            5.0594     6.5119     1.5760 H       
  45 H45            6.7510     4.8437     3.1033 H       
  46 H46            7.3772     4.9040     1.4382 H       
  47 H47            7.2306     6.4018     2.3887 H       
  48 H48           -2.3178    -1.0240     0.5936 H       
  49 H49           -2.8326     0.1589     1.8217 H       
  50 H50           -2.7211     1.0299    -1.0614 H       
  51 H51           -4.0767     0.0043    -0.5368 H       
  52 H52           -4.2468     2.6400    -0.3637 H       
  53 H53           -4.9073     1.6087     0.9227 H       
  54 H54           -1.5197     3.9461     1.2993 H       
  55 H55           -2.1036     3.3580    -0.2774 H       
  56 H56           -4.6732     3.2407     2.6320 H       
  57 H57           -3.1359     4.1180     2.8201 H       
  58 H58           -4.1523     4.4007     1.3865 H       
  59 H59            1.8437    -3.8851    -1.0784 H       
  60 H60            0.8524    -5.2616     0.6981 H       
  61 H61           -0.4656    -4.2173     2.4910 H       
  62 H62           -0.8019    -1.7843     2.5307 H       
  63 H63            2.6746    -2.7172    -2.2408 H       
  64 H64            2.8738    -1.2208    -2.9781 H       
@<TRIPOS>BOND
   1    1    2 1
   2    1    5 2
   3    1   22 1
   4    2    3 1
   5    2   18 1
   6    3    4 2
   7    3   24 1
   8    4    5 1
   9    5    6 1
  10    6    7 2
  11    6    8 am
  12    8    9 1
  13    8   33 1
  14    9   10 1
  15    9   12 1
  16    9   34 1
  17   10   11 1
  18   10   13 1
  19   10   14 1
  20   11   35 1
  21   11   36 1
  22   11   37 1
  23   12   15 2
  24   12   16 am
  25   13   38 1
  26   13   39 1
  27   13   40 1
  28   14   41 1
  29   14   42 1
  30   14   43 1
  31   16   17 1
  32   16   44 1
  33   17   45 1
  34   17   46 1
  35   17   47 1
  36   18   19 1
  37   18   48 1
  38   18   49 1
  39   19   20 1
  40   19   50 1
  41   19   51 1
  42   20   21 1
  43   20   52 1
  44   20   53 1
  45   21   22 1
  46   21   23 1
  47   22   54 1
  48   22   55 1
  49   23   56 1
  50   23   57 1
  51   23   58 1
  52   24   25 ar
  53   24   29 ar
  54   25   26 ar
  55   25   30 1
  56   26   27 ar
  57   26   59 1
  58   27   28 ar
  59   27   60 1
  60   28   29 ar
  61   28   61 1
  62   29   62 1
  63   30   31 2
  64   30   32 am
  65   32   63 1
  66   32   64 1

#	End of record

