#	Name: ASD02030699
#	Creating user name:	WinNT
#	Creation time:	15. 06. 2019 20:15

#	Modifying user name:	WinNT
#	Modification time:	15. 06. 2019 20:15

#	Program:	/corina/corina34_cracker 3.40 0067  02.08.2006

@<TRIPOS>MOLECULE
ASD02030699
  30   30    0    0    0
SMALL
NO_CHARGES


@<TRIPOS>ATOM
   1 N1            -0.0169     1.3957     0.0097 N.2     
   2 N2             0.0021    -0.0041     0.0020 N.am    
   3 C3             1.1646    -0.6797    -0.0123 C.2     
   4 N4             2.3448    -0.0325    -0.0200 N.am    
   5 C5             2.3757     1.3164    -0.0131 C.2     
   6 C6             1.1074     2.0610     0.0026 C.2     
   7 O7             1.1494    -1.8958    -0.0178 O.2     
   8 O8             3.4386     1.9089    -0.0192 O.2     
   9 O9             1.1051     3.4197     0.0094 O.3     
  10 C10           -1.2627    -0.7434     0.0101 C.3     
  11 C11           -1.6892    -1.0085     1.4554 C.3     
  12 C12           -3.0100    -1.7806     1.4638 C.3     
  13 C13           -2.8269    -3.1126     0.7336 C.3     
  14 C14           -3.4366    -2.0457     2.9091 C.3     
  15 C15           -4.0876    -0.9556     0.7572 C.3     
  16 H16            3.1737    -0.5362    -0.0303 H       
  17 H17            0.2211     3.8114     0.0197 H       
  18 H18           -2.0303    -0.1556    -0.4933 H       
  19 H19           -1.1322    -1.6923    -0.5101 H       
  20 H20           -0.9215    -1.5962     1.9587 H       
  21 H21           -1.8197    -0.0596     1.9756 H       
  22 H22           -2.0592    -3.7003     1.2370 H       
  23 H23           -3.7679    -3.6627     0.7397 H       
  24 H24           -2.5230    -2.9237    -0.2960 H       
  25 H25           -3.5671    -1.0968     3.4293 H       
  26 H26           -4.3776    -2.5958     2.9151 H       
  27 H27           -2.6689    -2.6335     3.4124 H       
  28 H28           -3.7837    -0.7668    -0.2724 H       
  29 H29           -5.0286    -1.5057     0.7633 H       
  30 H30           -4.2181    -0.0067     1.2775 H       
@<TRIPOS>BOND
   1    1    2 1
   2    1    6 2
   3    2    3 am
   4    2   10 1
   5    3    4 am
   6    3    7 2
   7    4    5 am
   8    4   16 1
   9    5    6 1
  10    5    8 2
  11    6    9 1
  12    9   17 1
  13   10   11 1
  14   10   18 1
  15   10   19 1
  16   11   12 1
  17   11   20 1
  18   11   21 1
  19   12   13 1
  20   12   14 1
  21   12   15 1
  22   13   22 1
  23   13   23 1
  24   13   24 1
  25   14   25 1
  26   14   26 1
  27   14   27 1
  28   15   28 1
  29   15   29 1
  30   15   30 1

#	End of record

