#	Name: ASD01238027
#	Creating user name:	WinNT
#	Creation time:	15. 06. 2019 19:15

#	Modifying user name:	WinNT
#	Modification time:	15. 06. 2019 19:15

#	Program:	/corina/corina34_cracker 3.40 0067  02.08.2006

@<TRIPOS>MOLECULE
ASD01238027
  30   30    0    0    0
SMALL
NO_CHARGES


@<TRIPOS>ATOM
   1 O1            -2.2284     0.7458     1.7407 O.3     
   2 C2            -1.7078    -0.4667     1.4944 C.2     
   3 O3            -1.5764    -1.2620     2.3945 O.2     
   4 C4            -1.2871    -0.8360     0.0953 C.3     
   5 C5            -0.8746    -2.3089     0.0588 C.3     
   6 C6            -2.0932    -3.2135     0.3351 C.3     
   7 C7            -2.2517    -4.0728    -0.9377 C.3     
   8 N8            -0.8997    -4.0828    -1.5534 N.3     
   9 C9            -0.3994    -2.6977    -1.3577 C.3     
  10 C10            1.1054    -2.6668    -1.4341 C.2     
  11 O11            1.7446    -3.6550    -1.1607 O.2     
  12 O12            1.7355    -1.5414    -1.8059 O.3     
  13 C13           -1.8321    -4.0926     1.5309 C.2     
  14 C14           -2.6109    -4.0176     2.5816 C.2     
  15 C15           -0.6750    -5.0580     1.5182 C.3     
  16 H16           -2.4835     0.9368     2.6537 H       
  17 H17           -2.1200    -0.6749    -0.5891 H       
  18 H18           -0.4436    -0.2149    -0.2064 H       
  19 H19           -0.0883    -2.4994     0.7892 H       
  20 H20           -2.9852    -2.6082     0.4967 H       
  21 H21           -2.5580    -5.0858    -0.6767 H       
  22 H22           -2.9747    -3.6187    -1.6153 H       
  23 H23           -0.2991    -4.7522    -1.0961 H       
  24 H24           -0.8325    -2.0284    -2.1010 H       
  25 H25            2.7015    -1.5700    -1.8402 H       
  26 H26           -2.4238    -4.6475     3.4386 H       
  27 H27           -3.4402    -3.3257     2.5907 H       
  28 H28           -0.1460    -4.9786     0.5684 H       
  29 H29            0.0065    -4.8191     2.3346 H       
  30 H30           -1.0484    -6.0745     1.6422 H       
@<TRIPOS>BOND
   1    1    2 1
   2    1   16 1
   3    2    3 2
   4    2    4 1
   5    4    5 1
   6    4   17 1
   7    4   18 1
   8    5    6 1
   9    5    9 1
  10    5   19 1
  11    6    7 1
  12    6   13 1
  13    6   20 1
  14    7    8 1
  15    7   21 1
  16    7   22 1
  17    8    9 1
  18    8   23 1
  19    9   10 1
  20    9   24 1
  21   10   11 2
  22   10   12 1
  23   12   25 1
  24   13   14 2
  25   13   15 1
  26   14   26 1
  27   14   27 1
  28   15   28 1
  29   15   29 1
  30   15   30 1

#	End of record

