#	Name: ASD04880251
#	Creating user name:	WinNT
#	Creation time:	15. 06. 2019 20:53

#	Modifying user name:	WinNT
#	Modification time:	15. 06. 2019 20:53

#	Program:	/corina/corina34_cracker 3.40 0067  02.08.2006

@<TRIPOS>MOLECULE
ASD04880251
  55   58    0    0    0
SMALL
NO_CHARGES


@<TRIPOS>ATOM
   1 C1            -0.0121     1.4644     0.0384 C.3     
   2 N2             0.0038    -0.0070     0.0402 N.am    
   3 N3             1.3265    -0.4432     0.0806 N.2     
   4 C4             2.1943     0.5091     0.1060 C.2     
   5 C5             1.4817     1.8424     0.0832 C.3     
   6 C6            -1.0835    -0.8028     0.0088 C.2     
   7 C7            -0.9242    -2.2673    -0.1123 C.ar    
   8 O8            -2.1954    -0.3160     0.0800 O.2     
   9 C9             0.3400    -2.8179    -0.3384 C.ar    
  10 C10            0.4903    -4.1854    -0.4522 C.ar    
  11 C11           -0.6059    -5.0183    -0.3431 C.ar    
  12 C12           -1.8752    -4.4813    -0.1166 C.ar    
  13 C13           -2.0334    -3.1023     0.0046 C.ar    
  14 C14            3.6564     0.3266     0.1504 C.ar    
  15 C15            4.5005     1.4394     0.1754 C.ar    
  16 C16            4.2015    -0.9602     0.1733 C.ar    
  17 C17            5.5728    -1.1254     0.2148 C.ar    
  18 C18            6.4089    -0.0107     0.2342 C.ar    
  19 C19            5.8683     1.2664     0.2168 C.ar    
  20 O20            7.7576    -0.1754     0.2760 O.3     
  21 C21            8.5557     1.0098     0.2939 C.3     
  22 O22            6.1066    -2.3761     0.2372 O.3     
  23 C23            5.1907    -3.4728     0.2158 C.3     
  24 C24            1.8657     2.6261    -1.1453 C.ar    
  25 C25            2.4433     3.8754    -1.0155 C.ar    
  26 C26            1.6456     2.0932    -2.4017 C.ar    
  27 C27            1.9980     2.8114    -3.5288 C.ar    
  28 C28            2.5712     4.0637    -3.3994 C.ar    
  29 C29            2.7957     4.5945    -2.1420 C.ar    
  30 C30           -3.0477    -5.3746    -0.0005 C.2     
  31 N31           -2.8924    -6.7086    -0.1133 N.am    
  32 Br32           3.0542     5.0466    -4.9410 Br      
  33 O33           -4.1518    -4.9058     0.1966 O.2     
  34 H34           -0.4761     1.8419    -0.8728 H       
  35 H35           -0.5303     1.8435     0.9193 H       
  36 H36            1.7053     2.4109     0.9860 H       
  37 H37            1.2014    -2.1721    -0.4248 H       
  38 H38            1.4695    -4.6058    -0.6277 H       
  39 H39           -0.4815    -6.0873    -0.4334 H       
  40 H40           -3.0126    -2.6820     0.1801 H       
  41 H41            4.0821     2.4350     0.1619 H       
  42 H42            3.5525    -1.8233     0.1589 H       
  43 H43            6.5199     2.1276     0.2317 H       
  44 H44            8.3597     1.5935    -0.6056 H       
  45 H45            8.3057     1.6029     1.1735 H       
  46 H46            9.6105     0.7371     0.3273 H       
  47 H47            5.7461    -4.4104     0.2371 H       
  48 H48            4.5374    -3.4176     1.0865 H       
  49 H49            4.5901    -3.4269    -0.6927 H       
  50 H50            2.6189     4.2896    -0.0336 H       
  51 H51            1.1984     1.1153    -2.5026 H       
  52 H52            1.8263     2.3948    -4.5103 H       
  53 H53            3.2432     5.5722    -2.0405 H       
  54 H54           -2.0113    -7.0827    -0.2706 H       
  55 H55           -3.6616    -7.2946    -0.0372 H       
@<TRIPOS>BOND
   1    1    2 1
   2    1    5 1
   3    1   34 1
   4    1   35 1
   5    2    3 1
   6    2    6 am
   7    3    4 2
   8    4    5 1
   9    4   14 1
  10    5   24 1
  11    5   36 1
  12    6    7 1
  13    6    8 2
  14    7    9 ar
  15    7   13 ar
  16    9   10 ar
  17    9   37 1
  18   10   11 ar
  19   10   38 1
  20   11   12 ar
  21   11   39 1
  22   12   13 ar
  23   12   30 1
  24   13   40 1
  25   14   15 ar
  26   14   16 ar
  27   15   19 ar
  28   15   41 1
  29   16   17 ar
  30   16   42 1
  31   17   18 ar
  32   17   22 1
  33   18   19 ar
  34   18   20 1
  35   19   43 1
  36   20   21 1
  37   21   44 1
  38   21   45 1
  39   21   46 1
  40   22   23 1
  41   23   47 1
  42   23   48 1
  43   23   49 1
  44   24   25 ar
  45   24   26 ar
  46   25   29 ar
  47   25   50 1
  48   26   27 ar
  49   26   51 1
  50   27   28 ar
  51   27   52 1
  52   28   29 ar
  53   28   32 1
  54   29   53 1
  55   30   31 am
  56   30   33 2
  57   31   54 1
  58   31   55 1

#	End of record

