#	Name: ASD04910065
#	Creating user name:	WinNT
#	Creation time:	15. 06. 2019 20:55

#	Modifying user name:	WinNT
#	Modification time:	15. 06. 2019 20:55

#	Program:	/corina/corina34_cracker 3.40 0067  02.08.2006

@<TRIPOS>MOLECULE
ASD04910065
  32   32    0    0    0
SMALL
NO_CHARGES


@<TRIPOS>ATOM
   1 C1            -0.0180     1.4754     0.0102 C.2     
   2 C2             0.0021    -0.0041     0.0020 C.ar    
   3 C3             1.2207    -0.6851    -0.0133 C.ar    
   4 C4             1.2405    -2.0626    -0.0209 C.ar    
   5 C5             0.0397    -2.7785    -0.0132 C.ar    
   6 C6            -1.1801    -2.0956     0.0021 C.ar    
   7 C7            -1.1976    -0.7181     0.0154 C.ar    
   8 O8             1.0253     2.0968     0.0035 O.2     
   9 O9            -1.1934     2.1329     0.0193 O.3     
  10 C10            0.0597    -4.2525    -0.0218 C.2     
  11 C11           -1.2350    -5.0236    -0.0136 C.3     
  12 C12           -0.9351    -6.5239    -0.0251 C.3     
  13 C13           -0.2246    -6.9119     1.2732 C.3     
  14 O14            1.1176    -4.8442    -0.0355 O.2     
  15 C15           -2.2454    -7.3051    -0.1425 C.3     
  16 C16           -1.1371     3.5838     0.0269 C.3     
  17 H17            2.1482    -0.1319    -0.0195 H       
  18 H18            2.1833    -2.5893    -0.0331 H       
  19 H19           -2.1083    -2.6477     0.0080 H       
  20 H20           -2.1397    -0.1903     0.0317 H       
  21 H21           -1.8014    -4.7732     0.8834 H       
  22 H22           -1.8187    -4.7630    -0.8965 H       
  23 H23           -0.2941    -6.7598    -0.8745 H       
  24 H24           -0.0109    -7.9807     1.2650 H       
  25 H25            0.7089    -6.3554     1.3569 H       
  26 H26           -0.8656    -6.6760     2.1227 H       
  27 H27           -2.7516    -7.0287    -1.0674 H       
  28 H28           -2.0317    -8.3739    -0.1507 H       
  29 H29           -2.8864    -7.0692     0.7070 H       
  30 H30           -0.6054     3.9221     0.9162 H       
  31 H31           -0.6138     3.9318    -0.8637 H       
  32 H32           -2.1499     3.9867     0.0339 H       
@<TRIPOS>BOND
   1    1    2 1
   2    1    8 2
   3    1    9 1
   4    2    3 ar
   5    2    7 ar
   6    3    4 ar
   7    3   17 1
   8    4    5 ar
   9    4   18 1
  10    5    6 ar
  11    5   10 1
  12    6    7 ar
  13    6   19 1
  14    7   20 1
  15    9   16 1
  16   10   11 1
  17   10   14 2
  18   11   12 1
  19   11   21 1
  20   11   22 1
  21   12   13 1
  22   12   15 1
  23   12   23 1
  24   13   24 1
  25   13   25 1
  26   13   26 1
  27   15   27 1
  28   15   28 1
  29   15   29 1
  30   16   30 1
  31   16   31 1
  32   16   32 1

#	End of record

