#	Name: ASD01230302
#	Creating user name:	WinNT
#	Creation time:	15. 06. 2019 19:14

#	Modifying user name:	WinNT
#	Modification time:	15. 06. 2019 19:14

#	Program:	/corina/corina34_cracker 3.40 0067  02.08.2006

@<TRIPOS>MOLECULE
ASD01230302
  44   47    0    0    0
SMALL
NO_CHARGES


@<TRIPOS>ATOM
   1 S1             0.0776     1.7761     1.3203 S.o2    
   2 N2            -0.1063     0.2602     0.6830 N.am    
   3 C3             0.6410    -0.1809    -0.2996 C.2     
   4 N4             1.6387     0.5208    -0.9142 N.pl3   
   5 C5             1.9750     1.9117    -0.5989 C.3     
   6 C6             1.8019     2.1812     0.8987 C.3     
   7 C7             0.3579    -1.5573    -0.7593 C.2     
   8 C8             1.1298    -2.1017    -1.7625 C.2     
   9 C9             2.1604    -1.3325    -2.3202 C.2     
  10 C10            2.3887    -0.0778    -1.8958 C.2     
  11 C11           -0.7405    -2.3406    -0.1493 C.ar    
  12 C12           -0.4547    -3.4959     0.5792 C.ar    
  13 C13           -1.4801    -4.2228     1.1458 C.ar    
  14 C14           -2.7960    -3.8066     0.9921 C.ar    
  15 C15           -3.0842    -2.6574     0.2678 C.ar    
  16 C16           -2.0635    -1.9222    -0.2968 C.ar    
  17 O17           -3.8041    -4.5257     1.5515 O.3     
  18 C18           -4.3858    -5.4985     0.8021 C.ar    
  19 C19           -5.4926    -6.1812     1.2870 C.ar    
  20 C20           -6.0819    -7.1695     0.5233 C.ar    
  21 C21           -5.5702    -7.4792    -0.7236 C.ar    
  22 C22           -4.4678    -6.8007    -1.2090 C.ar    
  23 C23           -3.8779    -5.8072    -0.4515 C.ar    
  24 C24           -6.0505    -5.8447     2.6459 C.3     
  25 O25           -0.8260     2.5866     0.5815 O.2     
  26 O26           -0.0698     1.5950     2.7220 O.2     
  27 H27            3.0099     2.1042    -0.8815 H       
  28 H28            1.3197     2.5764    -1.1618 H       
  29 H29            1.9996     3.2316     1.1124 H       
  30 H30            2.4822     1.5503     1.4708 H       
  31 H31            0.9438    -3.1060    -2.1136 H       
  32 H32            2.7783    -1.7530    -3.0998 H       
  33 H33            3.1953     0.4822    -2.3454 H       
  34 H34            0.5684    -3.8204     0.6988 H       
  35 H35           -1.2597    -5.1173     1.7095 H       
  36 H36           -4.1087    -2.3368     0.1500 H       
  37 H37           -2.2880    -1.0259    -0.8559 H       
  38 H38           -6.9430    -7.7013     0.9003 H       
  39 H39           -6.0323    -8.2526    -1.3191 H       
  40 H40           -4.0701    -7.0444    -2.1831 H       
  41 H41           -3.0194    -5.2744    -0.8330 H       
  42 H42           -6.8041    -5.0635     2.5460 H       
  43 H43           -6.5048    -6.7341     3.0826 H       
  44 H44           -5.2461    -5.4930     3.2920 H       
@<TRIPOS>BOND
   1    1    2 am
   2    1    6 1
   3    1   25 2
   4    1   26 2
   5    2    3 2
   6    3    4 1
   7    3    7 1
   8    4    5 1
   9    4   10 1
  10    5    6 1
  11    5   27 1
  12    5   28 1
  13    6   29 1
  14    6   30 1
  15    7    8 2
  16    7   11 1
  17    8    9 1
  18    8   31 1
  19    9   10 2
  20    9   32 1
  21   10   33 1
  22   11   12 ar
  23   11   16 ar
  24   12   13 ar
  25   12   34 1
  26   13   14 ar
  27   13   35 1
  28   14   15 ar
  29   14   17 1
  30   15   16 ar
  31   15   36 1
  32   16   37 1
  33   17   18 1
  34   18   19 ar
  35   18   23 ar
  36   19   20 ar
  37   19   24 1
  38   20   21 ar
  39   20   38 1
  40   21   22 ar
  41   21   39 1
  42   22   23 ar
  43   22   40 1
  44   23   41 1
  45   24   42 1
  46   24   43 1
  47   24   44 1

#	End of record

