#	Name: ASD01912917
#	Creating user name:	WinNT
#	Creation time:	15. 06. 2019 20:00

#	Modifying user name:	WinNT
#	Modification time:	15. 06. 2019 20:00

#	Program:	/corina/corina34_cracker 3.40 0067  02.08.2006

@<TRIPOS>MOLECULE
ASD01912917
  45   49    0    0    0
SMALL
NO_CHARGES


@<TRIPOS>ATOM
   1 C1            -0.1022     1.1840     0.6542 C.2     
   2 N2             0.0086     0.0098    -0.0451 N.pl3   
   3 C3            -1.1076    -0.4902    -0.6988 C.2     
   4 C4            -2.2720     0.1447    -0.6587 C.2     
   5 N5            -2.4358     1.3307     0.0317 N.am    
   6 C6            -1.3923     1.8742     0.6973 C.2     
   7 C7             1.1424     1.4439     1.1968 C.2     
   8 C8             1.9494     0.3856     0.7827 C.2     
   9 N9             1.2160    -0.4224     0.0541 N.2     
  10 O10           -1.5200     2.9187     1.3105 O.2     
  11 C11           -3.6822     1.9655     0.0461 C.ar    
  12 C12            3.4082     0.2019     1.1132 C.3     
  13 O13            3.8527     1.2890     1.9273 O.3     
  14 C14            5.1547     1.2761     2.3166 C.ar    
  15 C15            5.6534     2.3006     3.1080 C.ar    
  16 C16            6.9773     2.2852     3.5024 C.ar    
  17 C17            7.8051     1.2499     3.1090 C.ar    
  18 C18            7.3106     0.2280     2.3198 C.ar    
  19 C19            5.9859     0.2356     1.9279 C.ar    
  20 C20           -4.5754     1.6536     1.0272 C.ar    
  21 C21           -5.8343     2.2894     1.0496 C.ar    
  22 C22           -6.1441     3.2769     0.0038 C.ar    
  23 C23           -5.1724     3.5529    -0.9828 C.ar    
  24 C24           -3.9794     2.9115    -0.9462 C.ar    
  25 N25           -6.8949     2.2198     1.8341 N.2     
  26 N26           -7.8709     3.1027     1.3580 N.pl3   
  27 C27           -7.4222     3.7341     0.2646 C.2     
  28 C28           -9.1884     3.3064     1.9654 C.3     
  29 H29           -1.0275    -1.4144    -1.2518 H       
  30 H30           -3.1172    -0.2778    -1.1817 H       
  31 H31            1.4282     2.2862     1.8094 H       
  32 H32            3.5432    -0.7353     1.6533 H       
  33 H33            3.9893     0.1770     0.1914 H       
  34 H34            5.0073     3.1096     3.4153 H       
  35 H35            7.3661     3.0826     4.1183 H       
  36 H36            8.8398     1.2397     3.4183 H       
  37 H37            7.9593    -0.5792     2.0132 H       
  38 H38            5.6001    -0.5629     1.3115 H       
  39 H39           -4.3211     0.9244     1.7822 H       
  40 H40           -5.3775     4.2740    -1.7602 H       
  41 H41           -3.2416     3.1284    -1.7045 H       
  42 H42           -7.9635     4.4702    -0.3111 H       
  43 H43           -9.1277     4.1039     2.7060 H       
  44 H44           -9.9060     3.5821     1.1926 H       
  45 H45           -9.5117     2.3849     2.4495 H       
@<TRIPOS>BOND
   1    1    2 1
   2    1    7 2
   3    1    6 1
   4    2    3 1
   5    2    9 1
   6    3    4 2
   7    3   29 1
   8    4    5 1
   9    4   30 1
  10    5    6 am
  11    5   11 1
  12    6   10 2
  13    7    8 1
  14    7   31 1
  15    8    9 2
  16    8   12 1
  17   11   20 ar
  18   11   24 ar
  19   12   13 1
  20   12   32 1
  21   12   33 1
  22   13   14 1
  23   14   15 ar
  24   14   19 ar
  25   15   16 ar
  26   15   34 1
  27   16   17 ar
  28   16   35 1
  29   17   18 ar
  30   17   36 1
  31   18   19 ar
  32   18   37 1
  33   19   38 1
  34   20   21 ar
  35   20   39 1
  36   21   22 ar
  37   21   25 2
  38   22   23 ar
  39   22   27 2
  40   23   24 ar
  41   23   40 1
  42   24   41 1
  43   25   26 1
  44   26   27 1
  45   26   28 1
  46   27   42 1
  47   28   43 1
  48   28   44 1
  49   28   45 1

#	End of record

