#	Name: ASD01914248
#	Creating user name:	WinNT
#	Creation time:	15. 06. 2019 20:03

#	Modifying user name:	WinNT
#	Modification time:	15. 06. 2019 20:03

#	Program:	/corina/corina34_cracker 3.40 0067  02.08.2006

@<TRIPOS>MOLECULE
ASD01914248
  47   48    0    0    0
SMALL
NO_CHARGES


@<TRIPOS>ATOM
   1 C1             0.3581     1.2388     2.9811 C.ar    
   2 C2             0.3037    -0.1226     2.6992 C.ar    
   3 N3             1.3151    -0.7357     2.1033 N.ar    
   4 C4             2.4082    -0.0909     1.7536 C.ar    
   5 C5             2.5377     1.2762     2.0027 C.ar    
   6 C6             1.4846     1.9554     2.6324 C.ar    
   7 N7             4.7710     1.3335     1.0056 N.am    
   8 C8             3.7650     1.9963     1.6098 C.2     
   9 O9             3.8682     3.1873     1.8312 O.2     
  10 O10           -0.7998    -0.8314     3.0397 O.3     
  11 C11           -0.7981    -2.2253     2.7250 C.3     
  12 C12            5.9890     2.0482     0.6157 C.3     
  13 C13           -2.0969    -2.8434     3.1745 C.ar    
  14 C14           -3.1761    -2.8862     2.3126 C.ar    
  15 C15           -4.3695    -3.4541     2.7259 C.ar    
  16 C16           -4.4799    -3.9785     4.0024 C.ar    
  17 C17           -3.3990    -3.9346     4.8628 C.ar    
  18 C18           -2.2065    -3.3725     4.4472 C.ar    
  19 F19           -5.4255    -3.4961     1.8843 F       
  20 C20            7.1584     1.0639     0.5482 C.3     
  21 C21            6.7959    -0.0959    -0.3815 C.3     
  22 C22            8.3981     1.7809     0.0097 C.3     
  23 C23            7.4507     0.5224     1.9491 C.3     
  24 C24            5.7849     2.6925    -0.7570 C.3     
  25 F25            4.6323     3.4851    -0.7333 F       
  26 F26            6.8923     3.4890    -1.0675 F       
  27 F27            5.6434     1.6925    -1.7251 F       
  28 H28           -0.4740     1.7301     3.4634 H       
  29 H29            3.2125    -0.6250     1.2696 H       
  30 H30            1.5535     3.0132     2.8390 H       
  31 H31            4.6887     0.3833     0.8290 H       
  32 H32           -0.6875    -2.3547     1.6484 H       
  33 H33            0.0322    -2.7123     3.2366 H       
  34 H34            6.2074     2.8221     1.3515 H       
  35 H35           -3.0890    -2.4765     1.3172 H       
  36 H36           -5.4102    -4.4214     4.3260 H       
  37 H37           -3.4848    -4.3435     5.8587 H       
  38 H38           -1.3624    -3.3389     5.1201 H       
  39 H39            6.7676     0.2593    -1.4115 H       
  40 H40            7.5440    -0.8832    -0.2890 H       
  41 H41            5.8177    -0.4902    -0.1061 H       
  42 H42            8.5535     2.7052     0.5660 H       
  43 H43            9.2695     1.1363     0.1252 H       
  44 H44            8.2544     2.0118    -1.0458 H       
  45 H45            6.5675     0.0116     2.3327 H       
  46 H46            8.2838    -0.1788     1.9010 H       
  47 H47            7.7089     1.3487     2.6114 H       
@<TRIPOS>BOND
   1    1    2 ar
   2    1    6 ar
   3    1   28 1
   4    2    3 ar
   5    2   10 1
   6    3    4 ar
   7    4    5 ar
   8    4   29 1
   9    5    6 ar
  10    5    8 1
  11    6   30 1
  12    7    8 am
  13    7   12 1
  14    7   31 1
  15    8    9 2
  16   10   11 1
  17   11   13 1
  18   11   32 1
  19   11   33 1
  20   12   20 1
  21   12   24 1
  22   12   34 1
  23   13   14 ar
  24   13   18 ar
  25   14   15 ar
  26   14   35 1
  27   15   16 ar
  28   15   19 1
  29   16   17 ar
  30   16   36 1
  31   17   18 ar
  32   17   37 1
  33   18   38 1
  34   20   21 1
  35   20   23 1
  36   20   22 1
  37   21   39 1
  38   21   40 1
  39   21   41 1
  40   22   42 1
  41   22   43 1
  42   22   44 1
  43   23   45 1
  44   23   46 1
  45   23   47 1
  46   24   25 1
  47   24   26 1
  48   24   27 1

#	End of record

