#	Name: ASD04590297
#	Creating user name:	WinNT
#	Creation time:	15. 06. 2019 20:50

#	Modifying user name:	WinNT
#	Modification time:	15. 06. 2019 20:50

#	Program:	/corina/corina34_cracker 3.40 0067  02.08.2006

@<TRIPOS>MOLECULE
ASD04590297
  39   42    0    0    0
SMALL
NO_CHARGES


@<TRIPOS>ATOM
   1 C1            -0.0167     1.3834     0.0096 C.ar    
   2 C2             0.0021    -0.0041     0.0020 C.ar    
   3 C3             1.1863    -0.6848    -0.0125 C.ar    
   4 C4             2.3948     0.0191    -0.0203 C.ar    
   5 C5             2.3756     1.4250    -0.0131 C.ar    
   6 C6             1.1624     2.0987     0.0022 C.ar    
   7 N7             3.6952    -0.3636    -0.0349 N.2     
   8 C8             4.4665     0.6967    -0.0371 C.2     
   9 N9             3.6970     1.8290    -0.0239 N.pl3   
  10 C10            5.9437     0.6731    -0.0511 C.2     
  11 C11            6.7566    -0.4840    -0.0649 C.2     
  12 C12            8.0504    -0.0800    -0.0754 C.2     
  13 N13            8.0626     1.2789    -0.0687 N.pl3   
  14 N14            6.7358     1.7273    -0.0588 N.2     
  15 N15            6.3044    -1.8134    -0.0667 N.am    
  16 C16            7.1923    -2.8272    -0.0805 C.2     
  17 C17            6.7168    -4.2252    -0.0825 C.ar    
  18 O18            8.3850    -2.5907    -0.0914 O.2     
  19 C19            4.9104    -5.8083    -0.0663 C.ar    
  20 C20            5.8238    -6.8486    -0.0862 C.ar    
  21 C21            7.1807    -6.5862    -0.0986 C.ar    
  22 C22            7.6350    -5.2798    -0.0968 C.ar    
  23 C23            5.3477    -4.5009    -0.0643 C.ar    
  24 C24            8.1670    -7.7254    -0.1203 C.3     
  25 F25            8.9614    -5.0234    -0.1093 F       
  26 H26           -0.9614     1.9069     0.0170 H       
  27 H27           -0.9290    -0.5513     0.0080 H       
  28 H28            1.1893    -1.7648    -0.0177 H       
  29 H29            1.1417     3.1785     0.0075 H       
  30 H30            4.0192     2.7439    -0.0224 H       
  31 H31            8.9176    -0.7237    -0.0868 H       
  32 H32            8.8532     1.8409    -0.0733 H       
  33 H33            5.3529    -2.0020    -0.0581 H       
  34 H34            3.8517    -6.0217    -0.0568 H       
  35 H35            5.4742    -7.8705    -0.0877 H       
  36 H36            4.6330    -3.6914    -0.0484 H       
  37 H37            8.3935    -7.9903    -1.1531 H       
  38 H38            9.0832    -7.4225     0.3865 H       
  39 H39            7.7375    -8.5876     0.3900 H       
@<TRIPOS>BOND
   1    1    2 ar
   2    1    6 ar
   3    1   26 1
   4    2    3 ar
   5    2   27 1
   6    3    4 ar
   7    3   28 1
   8    4    5 ar
   9    4    7 1
  10    5    6 ar
  11    5    9 1
  12    6   29 1
  13    7    8 2
  14    8    9 1
  15    8   10 1
  16    9   30 1
  17   10   11 1
  18   10   14 2
  19   11   12 2
  20   11   15 1
  21   12   13 1
  22   12   31 1
  23   13   14 1
  24   13   32 1
  25   15   16 am
  26   15   33 1
  27   16   17 1
  28   16   18 2
  29   17   22 ar
  30   17   23 ar
  31   19   20 ar
  32   19   23 ar
  33   19   34 1
  34   20   21 ar
  35   20   35 1
  36   21   22 ar
  37   21   24 1
  38   22   25 1
  39   23   36 1
  40   24   37 1
  41   24   38 1
  42   24   39 1

#	End of record

