#	Name: ASD01670063
#	Creating user name:	WinNT
#	Creation time:	15. 06. 2019 19:22

#	Modifying user name:	WinNT
#	Modification time:	15. 06. 2019 19:22

#	Program:	/corina/corina34_cracker 3.40 0067  02.08.2006

@<TRIPOS>MOLECULE
ASD01670063
  37   40    0    0    0
SMALL
NO_CHARGES


@<TRIPOS>ATOM
   1 C1             0.0733     1.2914    -0.6540 C.ar    
   2 C2             0.0873    -0.0795    -0.4671 C.ar    
   3 C3             1.2297     2.0231    -0.4961 C.ar    
   4 C4             1.9980     4.2625     0.7752 C.ar    
   5 C5             1.2619    -0.7221    -0.1205 C.ar    
   6 C6             1.0191     5.2308     0.6863 C.ar    
   7 C7             2.4260     1.3802    -0.1456 C.ar    
   8 C8             3.0717     4.2663    -0.1153 C.ar    
   9 C9             3.1510     5.2675    -1.1088 C.ar    
  10 C10            2.4299    -0.0015     0.0414 C.ar    
  11 C11            1.0878     6.2185    -0.2861 C.ar    
  12 C12            2.1506     6.2426    -1.1864 C.ar    
  13 C13            3.7717     1.9383     0.0774 C.2     
  14 C14            4.1150     3.2349    -0.0200 C.2     
  15 C15            4.2772     5.2848    -2.0545 C.2     
  16 C16            3.8204    -0.4588     0.4115 C.3     
  17 C17            1.0321     8.1629    -1.3827 C.3     
  18 C18            4.6973     0.8006     0.4347 C.3     
  19 O19            4.1975     4.6798    -3.1057 O.2     
  20 O20            5.3979     5.9718    -1.7555 O.3     
  21 O21            0.2561     7.2645    -0.5679 O.3     
  22 O22            1.9861     7.3001    -2.0293 O.3     
  23 O23            5.7458     0.6936    -0.5303 O.3     
  24 H24           -0.8454     1.7883    -0.9286 H       
  25 H25           -0.8217    -0.6493    -0.5919 H       
  26 H26            1.2152     3.0930    -0.6427 H       
  27 H27            1.9351     3.5019     1.5394 H       
  28 H28            1.2663    -1.7922     0.0247 H       
  29 H29            0.1913     5.2197     1.3798 H       
  30 H30            5.1571     3.5184    -0.0283 H       
  31 H31            3.8108    -0.9278     1.3954 H       
  32 H32            4.1946    -1.1603    -0.3343 H       
  33 H33            0.3985     8.6546    -2.1208 H       
  34 H34            1.5414     8.8999    -0.7618 H       
  35 H35            5.1137     0.9512     1.4307 H       
  36 H36            6.1111     5.9538    -2.4081 H       
  37 H37            6.3724    -0.0211    -0.3527 H       
@<TRIPOS>BOND
   1    1    2 ar
   2    1    3 ar
   3    1   24 1
   4    2    5 ar
   5    2   25 1
   6    3    7 ar
   7    3   26 1
   8    4    6 ar
   9    4    8 ar
  10    4   27 1
  11    5   10 ar
  12    5   28 1
  13    6   11 ar
  14    6   29 1
  15    7   10 ar
  16    7   13 1
  17    8    9 ar
  18    8   14 1
  19    9   12 ar
  20    9   15 1
  21   10   16 1
  22   11   12 ar
  23   11   21 1
  24   12   22 1
  25   13   14 2
  26   13   18 1
  27   14   30 1
  28   15   19 2
  29   15   20 1
  30   16   18 1
  31   16   31 1
  32   16   32 1
  33   17   21 1
  34   17   22 1
  35   17   33 1
  36   17   34 1
  37   18   23 1
  38   18   35 1
  39   20   36 1
  40   23   37 1

#	End of record

