#	Name: ASD01918393
#	Creating user name:	WinNT
#	Creation time:	15. 06. 2019 20:11

#	Modifying user name:	WinNT
#	Modification time:	15. 06. 2019 20:11

#	Program:	/corina/corina34_cracker 3.40 0067  02.08.2006

@<TRIPOS>MOLECULE
ASD01918393
  41   43    0    0    0
SMALL
NO_CHARGES


@<TRIPOS>ATOM
   1 C1            -0.0171     1.3832     0.0062 C.ar    
   2 C2             0.0023    -0.0042     0.0050 C.ar    
   3 C3            -1.1850    -0.7177     0.0189 C.ar    
   4 C4            -2.3931    -0.0518     0.0340 C.ar    
   5 C5            -2.4192     1.3430     0.0358 C.ar    
   6 C6            -1.2221     2.0586     0.0271 C.ar    
   7 F7             1.1826    -0.6612    -0.0102 F       
   8 C8            -3.7132     2.0612     0.0520 C.2     
   9 N9            -4.8090     1.7792    -0.7091 N.pl3   
  10 N10           -5.7561     2.6033    -0.4374 N.2     
  11 C11           -5.3702     3.4588     0.4889 C.2     
  12 C12           -4.0417     3.1308     0.8370 C.2     
  13 C13           -4.8935     0.6963    -1.6922 C.3     
  14 C14           -3.1675     3.8202     1.8527 C.3     
  15 C15           -6.1800     4.5536     1.0609 C.2     
  16 N16           -7.4443     4.7492     0.6369 N.am    
  17 O17           -5.7060     5.2783     1.9141 O.2     
  18 C18           -8.2440     5.7108     1.2507 C.ar    
  19 C19           -9.5081     5.9831     0.7404 C.ar    
  20 N20           -7.7953     6.3529     2.3180 N.ar    
  21 C21           -8.5202     7.2699     2.9293 C.ar    
  22 C22           -9.7830     7.5941     2.4736 C.ar    
  23 C23          -10.2923     6.9403     1.3601 C.ar    
  24 C24           -7.9635     7.9723     4.1408 C.3     
  25 F25            1.1437     2.0743    -0.0073 F       
  26 H26           -1.1648    -1.7975     0.0175 H       
  27 H27           -3.3177    -0.6098     0.0441 H       
  28 H28           -1.2372     3.1385     0.0288 H       
  29 H29           -5.2580    -0.2084    -1.2056 H       
  30 H30           -5.5799     0.9819    -2.4893 H       
  31 H31           -3.9055     0.5097    -2.1130 H       
  32 H32           -3.3049     3.3524     2.8275 H       
  33 H33           -2.1234     3.7335     1.5520 H       
  34 H34           -3.4420     4.8733     1.9131 H       
  35 H35           -7.7974     4.2204    -0.0957 H       
  36 H36           -9.8731     5.4551    -0.1281 H       
  37 H37          -10.3696     8.3460     2.9806 H       
  38 H38          -11.2770     7.1756     0.9840 H       
  39 H39           -7.4242     8.8660     3.8267 H       
  40 H40           -8.7808     8.2555     4.8041 H       
  41 H41           -7.2829     7.3036     4.6677 H       
@<TRIPOS>BOND
   1    1    2 ar
   2    1   25 1
   3    1    6 ar
   4    2    3 ar
   5    2    7 1
   6    3    4 ar
   7    3   26 1
   8    4    5 ar
   9    4   27 1
  10    5    6 ar
  11    5    8 1
  12    6   28 1
  13    8    9 1
  14    8   12 2
  15    9   10 1
  16    9   13 1
  17   10   11 2
  18   11   12 1
  19   11   15 1
  20   12   14 1
  21   13   29 1
  22   13   30 1
  23   13   31 1
  24   14   32 1
  25   14   33 1
  26   14   34 1
  27   15   16 am
  28   15   17 2
  29   16   18 1
  30   16   35 1
  31   18   19 ar
  32   18   20 ar
  33   19   23 ar
  34   19   36 1
  35   20   21 ar
  36   21   22 ar
  37   21   24 1
  38   22   23 ar
  39   22   37 1
  40   23   38 1
  41   24   39 1
  42   24   40 1
  43   24   41 1

#	End of record

