#	Name: ASD01908048
#	Creating user name:	WinNT
#	Creation time:	15. 06. 2019 19:54

#	Modifying user name:	WinNT
#	Modification time:	15. 06. 2019 19:54

#	Program:	/corina/corina34_cracker 3.40 0067  02.08.2006

@<TRIPOS>MOLECULE
ASD01908048
  28   28    0    0    0
SMALL
NO_CHARGES


@<TRIPOS>ATOM
   1 N1            -0.0169     1.3956     0.0097 N.am    
   2 N2             0.0021    -0.0041     0.0020 N.2     
   3 C3             1.2424    -0.4054    -0.0120 C.2     
   4 C4             2.0751     0.7390    -0.0138 C.2     
   5 C5             1.2606     1.8374    -0.0001 C.2     
   6 C6            -1.1199     2.1700     0.0194 C.2     
   7 O7            -1.0125     3.3793     0.0250 O.2     
   8 O8            -2.3400     1.6029     0.0229 O.3     
   9 C9             1.7084    -1.8385    -0.0234 C.3     
  10 C10            3.5070     0.7456    -0.0274 C.1     
  11 N11            4.6430     0.7508    -0.0382 N.1     
  12 C12           -3.4830     2.4983     0.0334 C.3     
  13 C13           -3.4462     3.3869    -1.2116 C.3     
  14 C14           -4.7741     1.6772     0.0359 C.3     
  15 C15           -3.4332     3.3742     1.2868 C.3     
  16 H16            1.5796     2.8692     0.0024 H       
  17 H17            1.8112    -2.1789    -1.0537 H       
  18 H18            2.6719    -1.9113     0.4811 H       
  19 H19            0.9792    -2.4618     0.4942 H       
  20 H20           -3.4817     2.7629    -2.1046 H       
  21 H21           -4.3043     4.0591    -1.2037 H       
  22 H22           -2.5265     3.9719    -1.2134 H       
  23 H23           -4.8003     1.0442     0.9228 H       
  24 H24           -5.6321     2.3494     0.0438 H       
  25 H25           -4.8095     1.0532    -0.8571 H       
  26 H26           -2.5135     3.9592     1.2850 H       
  27 H27           -4.2913     4.0464     1.2947 H       
  28 H28           -3.4595     2.7412     2.1737 H       
@<TRIPOS>BOND
   1    1    2 1
   2    1    5 1
   3    1    6 am
   4    2    3 2
   5    3    4 1
   6    3    9 1
   7    4    5 2
   8    4   10 1
   9    5   16 1
  10    6    7 2
  11    6    8 1
  12    8   12 1
  13    9   17 1
  14    9   18 1
  15    9   19 1
  16   10   11 3
  17   12   13 1
  18   12   15 1
  19   12   14 1
  20   13   20 1
  21   13   21 1
  22   13   22 1
  23   14   23 1
  24   14   24 1
  25   14   25 1
  26   15   26 1
  27   15   27 1
  28   15   28 1

#	End of record

