#	Name: ASD02038746
#	Creating user name:	WinNT
#	Creation time:	15. 06. 2019 20:17

#	Modifying user name:	WinNT
#	Modification time:	15. 06. 2019 20:17

#	Program:	/corina/corina34_cracker 3.40 0067  02.08.2006

@<TRIPOS>MOLECULE
ASD02038746
  47   49    0    0    0
SMALL
NO_CHARGES


@<TRIPOS>ATOM
   1 C1            -1.2778    -0.8463     0.4667 C.2     
   2 C2            -0.0603    -0.0336     0.3012 C.2     
   3 N3             1.1365    -0.6353     0.1529 N.am    
   4 C4             1.2407    -2.0932     0.2515 C.3     
   5 C5             1.2114    -2.6936    -1.1305 C.ar    
   6 C6             2.3333     0.1687    -0.1069 C.3     
   7 O7            -0.1352     1.1803     0.2984 O.2     
   8 N8            -1.3386    -2.2025     0.4995 N.2     
   9 C9            -2.5788    -2.5671     0.6600 C.2     
  10 N10           -3.3601    -1.4576     0.7362 N.pl3   
  11 C11           -2.5477    -0.3731     0.6209 C.2     
  12 C12            2.3939    -3.0171    -1.7677 C.ar    
  13 C13            0.0012    -2.9253    -1.7572 C.ar    
  14 C14           -0.0291    -3.4760    -3.0254 C.ar    
  15 C15            1.1504    -3.7960    -3.6689 C.ar    
  16 C16            2.3662    -3.5696    -3.0397 C.ar    
  17 O17            3.5281    -3.8832    -3.6710 O.3     
  18 C18            2.1203     1.0120    -1.3678 C.3     
  19 C19            3.3435     1.9062    -1.5869 C.3     
  20 O20            3.5455     2.7257    -0.4338 O.3     
  21 C21            3.7967     1.9922     0.7666 C.3     
  22 C22            2.5917     1.1015     1.0803 C.3     
  23 C23            3.4238    -4.4429    -4.9817 C.3     
  24 F24            2.7704    -3.5375    -5.8247 F       
  25 F25            4.7044    -4.7038    -5.4806 F       
  26 F26            2.6943    -5.6352    -4.9229 F       
  27 Br27          -3.1932    -4.3522     0.7687 Br      
  28 C28           -4.8138    -1.4341     0.9159 C.3     
  29 H29            2.1768    -2.3582     0.7430 H       
  30 H30            0.4032    -2.4788     0.8330 H       
  31 H31            3.1908    -0.4892    -0.2488 H       
  32 H32           -2.8505     0.6634     0.6412 H       
  33 H33            3.3389    -2.8396    -1.2760 H       
  34 H34           -0.9222    -2.6761    -1.2555 H       
  35 H35           -0.9758    -3.6565    -3.5128 H       
  36 H36            1.1263    -4.2262    -4.6593 H       
  37 H37            1.9906     0.3550    -2.2278 H       
  38 H38            1.2327     1.6326    -1.2452 H       
  39 H39            4.2238     1.2844    -1.7497 H       
  40 H40            3.1794     2.5395    -2.4587 H       
  41 H41            4.6830     1.3715     0.6346 H       
  42 H42            3.9590     2.6874     1.5902 H       
  43 H43            1.7136     1.7239     1.2523 H       
  44 H44            2.7991     0.5085     1.9710 H       
  45 H45           -5.0480    -1.4089     1.9801 H       
  46 H46           -5.2254    -0.5482     0.4322 H       
  47 H47           -5.2497    -2.3276     0.4690 H       
@<TRIPOS>BOND
   1    1    2 1
   2    1    8 1
   3    1   11 2
   4    2    3 am
   5    2    7 2
   6    3    4 1
   7    3    6 1
   8    4    5 1
   9    4   29 1
  10    4   30 1
  11    5   12 ar
  12    5   13 ar
  13    6   18 1
  14    6   22 1
  15    6   31 1
  16    8    9 2
  17    9   10 1
  18    9   27 1
  19   10   11 1
  20   10   28 1
  21   11   32 1
  22   12   16 ar
  23   12   33 1
  24   13   14 ar
  25   13   34 1
  26   14   15 ar
  27   14   35 1
  28   15   16 ar
  29   15   36 1
  30   16   17 1
  31   17   23 1
  32   18   19 1
  33   18   37 1
  34   18   38 1
  35   19   20 1
  36   19   39 1
  37   19   40 1
  38   20   21 1
  39   21   22 1
  40   21   41 1
  41   21   42 1
  42   22   43 1
  43   22   44 1
  44   23   24 1
  45   23   25 1
  46   23   26 1
  47   28   45 1
  48   28   46 1
  49   28   47 1

#	End of record

