#	Name: ASD05740170
#	Creating user name:	WinNT
#	Creation time:	15. 06. 2019 21:02

#	Modifying user name:	WinNT
#	Modification time:	15. 06. 2019 21:02

#	Program:	/corina/corina34_cracker 3.40 0067  02.08.2006

@<TRIPOS>MOLECULE
ASD05740170
  58   62    0    0    0
SMALL
NO_CHARGES


@<TRIPOS>ATOM
   1 C1            -0.6117    -0.3850    -5.0829 C.3     
   2 N2            -0.9417     0.1513    -3.7551 N.3     
   3 C3            -2.1566    -0.3667    -3.2927 C.ar    
   4 C4            -2.6480     0.0172    -2.0518 C.ar    
   5 C5            -3.8467    -0.4939    -1.5957 C.ar    
   6 C6            -4.5609    -1.3923    -2.3776 C.ar    
   7 C7            -4.0694    -1.7767    -3.6182 C.ar    
   8 C8            -2.8739    -1.2605    -4.0773 C.ar    
   9 N9            -5.7768    -1.9112    -1.9146 N.pl3   
  10 C10           -6.6459    -1.1058    -1.2049 C.ar    
  11 N11           -6.3613     0.1858    -1.0785 N.ar    
  12 N12           -7.7345    -1.6494    -0.6807 N.ar    
  13 C13           -8.5913    -0.9057     0.0071 C.ar    
  14 C14           -8.3186     0.4709     0.1670 C.ar    
  15 C15           -7.1587     0.9998    -0.4102 C.ar    
  16 N16           -9.7263    -1.4391     0.5610 N.am    
  17 C17          -10.5845    -0.6702     1.2545 C.2     
  18 C18          -10.3609     0.7085     1.4437 C.2     
  19 C19           -9.2540     1.2991     0.9217 C.2     
  20 C20          -10.0085    -2.8670     0.3948 C.3     
  21 O21          -11.5835    -1.1795     1.7322 O.2     
  22 C22            0.1421    -0.1144    -2.7987 C.3     
  23 C23            1.4334     0.5351    -3.3018 C.3     
  24 N24            1.7634    -0.0012    -4.6297 N.3     
  25 C25            0.6796     0.2645    -5.5860 C.3     
  26 Br26         -11.5022    -3.2415     3.0856 Br      
  27 C27           -9.7796    -3.8982     2.6647 C.ar    
  28 C28           -9.2321    -3.6550     1.4181 C.ar    
  29 C29           -9.0642    -4.6172     3.6056 C.ar    
  30 C30           -7.8053    -5.0969     3.2976 C.ar    
  31 C31           -7.2608    -4.8585     2.0493 C.ar    
  32 C32           -7.9728    -4.1353     1.1109 C.ar    
  33 C33            3.0388     0.5426    -5.1150 C.3     
  34 H34           -0.4736    -1.4641    -5.0152 H       
  35 H35           -1.4235    -0.1648    -5.7761 H       
  36 H36           -2.0922     0.7154    -1.4434 H       
  37 H37           -4.2288    -0.1954    -0.6307 H       
  38 H38           -4.6245    -2.4759    -4.2259 H       
  39 H39           -2.4917    -1.5594    -5.0421 H       
  40 H40           -6.0085    -2.8363    -2.0923 H       
  41 H41           -6.9186     2.0478    -0.3077 H       
  42 H42          -11.0708     1.2971     2.0058 H       
  43 H43           -9.0721     2.3547     1.0601 H       
  44 H44          -11.0751    -3.0450     0.5319 H       
  45 H45           -9.7135    -3.1815    -0.6063 H       
  46 H46           -0.1202     0.3031    -1.8266 H       
  47 H47            0.2888    -1.1905    -2.7051 H       
  48 H48            1.2953     1.6142    -3.3695 H       
  49 H49            2.2453     0.3148    -2.6086 H       
  50 H50            0.9419    -0.1530    -6.5581 H       
  51 H51            0.5329     1.3405    -5.6796 H       
  52 H52           -9.4893    -4.8032     4.5808 H       
  53 H53           -7.2466    -5.6579     4.0321 H       
  54 H54           -6.2768    -5.2333     1.8090 H       
  55 H55           -7.5470    -3.9493     0.1359 H       
  56 H56            3.8357     0.2738    -4.4216 H       
  57 H57            3.2589     0.1293    -6.0993 H       
  58 H58            2.9682     1.6281    -5.1841 H       
@<TRIPOS>BOND
   1    1    2 1
   2    1   25 1
   3    1   34 1
   4    1   35 1
   5    2    3 1
   6    2   22 1
   7    3    4 ar
   8    3    8 ar
   9    4    5 ar
  10    4   36 1
  11    5    6 ar
  12    5   37 1
  13    6    7 ar
  14    6    9 1
  15    7    8 ar
  16    7   38 1
  17    8   39 1
  18    9   10 1
  19    9   40 1
  20   10   11 ar
  21   10   12 ar
  22   11   15 ar
  23   12   13 ar
  24   13   14 ar
  25   13   16 1
  26   14   15 ar
  27   14   19 1
  28   15   41 1
  29   16   17 am
  30   16   20 1
  31   17   18 1
  32   17   21 2
  33   18   19 2
  34   18   42 1
  35   19   43 1
  36   20   28 1
  37   20   44 1
  38   20   45 1
  39   22   23 1
  40   22   46 1
  41   22   47 1
  42   23   24 1
  43   23   48 1
  44   23   49 1
  45   24   25 1
  46   24   33 1
  47   25   50 1
  48   25   51 1
  49   26   27 1
  50   27   28 ar
  51   27   29 ar
  52   28   32 ar
  53   29   30 ar
  54   29   52 1
  55   30   31 ar
  56   30   53 1
  57   31   32 ar
  58   31   54 1
  59   32   55 1
  60   33   56 1
  61   33   57 1
  62   33   58 1

#	End of record

