#	Name: ASD00170651
#	Creating user name:	WinNT
#	Creation time:	15. 06. 2019 18:32

#	Modifying user name:	WinNT
#	Modification time:	15. 06. 2019 18:32

#	Program:	/corina/corina34_cracker 3.40 0067  02.08.2006

@<TRIPOS>MOLECULE
ASD00170651
  43   46    0    0    0
SMALL
NO_CHARGES


@<TRIPOS>ATOM
   1 C1            -0.0158     1.2108    -0.0082 C.2     
   2 O2             0.6399     1.0079    -1.0149 O.2     
   3 C3            -0.1476     1.0094     2.4761 C.2     
   4 C4             0.4732     0.7348     1.2980 C.2     
   5 C5             1.6604    -0.0713     1.4578 C.2     
   6 C6             1.9105    -0.3846     2.7239 C.2     
   7 S7             0.6896     0.3020     3.7814 S.3     
   8 C8            -3.5864     2.1412    -0.3168 C.2     
   9 C9            -2.5703     1.2737    -0.2643 C.2     
  10 C10           -1.2870     1.9330    -0.0954 C.2     
  11 C11           -1.3845     3.2974    -0.0253 C.2     
  12 S12           -3.0078     3.7918    -0.1611 S.3     
  13 C13           -2.7459    -0.2329    -0.3697 C.3     
  14 C14           -4.1278    -0.5278    -0.9575 C.3     
  15 C15           -5.1852     0.2540    -0.1723 C.3     
  16 C16           -5.0399     1.7455    -0.4938 C.3     
  17 C17           -6.5810    -0.2223    -0.5794 C.3     
  18 C18           -7.6147     0.4588     0.2800 C.ar    
  19 C19           -8.1616     1.6636    -0.1205 C.ar    
  20 C20           -9.1097     2.2884     0.6679 C.ar    
  21 C21           -9.5114     1.7082     1.8565 C.ar    
  22 C22           -8.9653     0.5029     2.2566 C.ar    
  23 C23           -8.0203    -0.1240     1.4661 C.ar    
  24 N24           -0.3129     4.1544     0.1341 N.pl3   
  25 H25           -1.0469     1.5996     2.5722 H       
  26 H26            2.2811    -0.3874     0.6324 H       
  27 H27            2.7483    -0.9794     3.0564 H       
  28 H28           -1.9760    -0.6458    -1.0214 H       
  29 H29           -2.6673    -0.6801     0.6212 H       
  30 H30           -4.1513    -0.2227    -2.0036 H       
  31 H31           -4.3347    -1.5954    -0.8837 H       
  32 H32           -5.0403     0.0918     0.8958 H       
  33 H33           -5.6618     2.3231     0.1901 H       
  34 H34           -5.3482     1.9368    -1.5216 H       
  35 H35           -6.7585     0.0252    -1.6260 H       
  36 H36           -6.6503    -1.3017    -0.4444 H       
  37 H37           -7.8478     2.1169    -1.0492 H       
  38 H38           -9.5365     3.2300     0.3553 H       
  39 H39          -10.2517     2.1966     2.4728 H       
  40 H40           -9.2788     0.0498     3.1854 H       
  41 H41           -7.5962    -1.0674     1.7769 H       
  42 H42            0.5763     3.7966     0.2830 H       
  43 H43           -0.4497     5.1140     0.0971 H       
@<TRIPOS>BOND
   1    1    2 2
   2    1    4 1
   3    1   10 1
   4    3    4 2
   5    3    7 1
   6    3   25 1
   7    4    5 1
   8    5    6 2
   9    5   26 1
  10    6    7 1
  11    6   27 1
  12    8    9 2
  13    8   12 1
  14    8   16 1
  15    9   10 1
  16    9   13 1
  17   10   11 2
  18   11   12 1
  19   11   24 1
  20   13   14 1
  21   13   28 1
  22   13   29 1
  23   14   15 1
  24   14   30 1
  25   14   31 1
  26   15   16 1
  27   15   17 1
  28   15   32 1
  29   16   33 1
  30   16   34 1
  31   17   18 1
  32   17   35 1
  33   17   36 1
  34   18   19 ar
  35   18   23 ar
  36   19   20 ar
  37   19   37 1
  38   20   21 ar
  39   20   38 1
  40   21   22 ar
  41   21   39 1
  42   22   23 ar
  43   22   40 1
  44   23   41 1
  45   24   42 1
  46   24   43 1

#	End of record

