#	Name: ASD00310394
#	Creating user name:	WinNT
#	Creation time:	15. 06. 2019 18:34

#	Modifying user name:	WinNT
#	Modification time:	15. 06. 2019 18:34

#	Program:	/corina/corina34_cracker 3.40 0067  02.08.2006

@<TRIPOS>MOLECULE
ASD00310394
  43   45    0    0    0
SMALL
NO_CHARGES


@<TRIPOS>ATOM
   1 N1             0.3113     0.1408    -0.7394 N.pl3   
   2 C2             0.4677    -1.1638    -0.4119 C.2     
   3 C3             1.7834    -1.4218    -0.1583 C.2     
   4 C4             2.5029    -0.1479    -0.3498 C.ar    
   5 C5             3.8366     0.2315    -0.2423 C.ar    
   6 C6             4.1975     1.5485    -0.4966 C.ar    
   7 C7             3.2223     2.4843    -0.8584 C.ar    
   8 C8             1.9020     2.1108    -0.9654 C.ar    
   9 C9             1.5264     0.7940    -0.7132 C.ar    
  10 C10            2.3673    -2.7110     0.2285 C.2     
  11 O11            3.5637    -2.8019     0.4261 O.2     
  12 O12            1.5772    -3.7952     0.3649 O.3     
  13 C13            5.6176     1.9631    -0.3841 C.ar    
  14 C14            6.2216     2.6740    -1.4197 C.ar    
  15 C15            7.5419     3.0580    -1.3122 C.ar    
  16 C16            8.2692     2.7368    -0.1742 C.ar    
  17 C17            7.6705     2.0284     0.8587 C.ar    
  18 C18            6.3486     1.6475     0.7598 C.ar    
  19 O19            9.5700     3.1161    -0.0714 O.3     
  20 C20           11.2665     4.7605    -0.5798 C.3     
  21 C21           10.0891     3.9430    -1.1149 C.3     
  22 C22           10.5634     3.0640    -2.2739 C.3     
  23 O23           12.3360     3.8808    -0.2272 O.3     
  24 C24           13.4911     4.5470     0.2866 C.3     
  25 Cl25           3.6809     4.1286    -1.1742 Cl      
  26 H26           -0.5355     0.5567    -0.9648 H       
  27 H27           -0.3292    -1.8909    -0.3591 H       
  28 H28            4.5868    -0.4932     0.0375 H       
  29 H29            1.1562     2.8402    -1.2449 H       
  30 H30            2.0074    -4.6225     0.6212 H       
  31 H31            5.6564     2.9235    -2.3055 H       
  32 H32            8.0104     3.6089    -2.1143 H       
  33 H33            8.2390     1.7794     1.7425 H       
  34 H34            5.8820     1.1006     1.5658 H       
  35 H35           11.6057     5.4550    -1.3484 H       
  36 H36           10.9503     5.3194     0.3010 H       
  37 H37            9.3083     4.6176    -1.4663 H       
  38 H38            9.7245     2.4816    -2.6551 H       
  39 H39           10.9593     3.6948    -3.0698 H       
  40 H40           11.3441     2.3895    -1.9225 H       
  41 H41           13.8765     5.2370    -0.4640 H       
  42 H42           13.2211     5.1014     1.1854 H       
  43 H43           14.2569     3.8105     0.5304 H       
@<TRIPOS>BOND
   1    1    2 1
   2    1    9 1
   3    1   26 1
   4    2    3 2
   5    2   27 1
   6    3    4 1
   7    3   10 1
   8    4    5 ar
   9    4    9 ar
  10    5    6 ar
  11    5   28 1
  12    6    7 ar
  13    6   13 1
  14    7    8 ar
  15    7   25 1
  16    8    9 ar
  17    8   29 1
  18   10   11 2
  19   10   12 1
  20   12   30 1
  21   13   14 ar
  22   13   18 ar
  23   14   15 ar
  24   14   31 1
  25   15   16 ar
  26   15   32 1
  27   16   17 ar
  28   16   19 1
  29   17   18 ar
  30   17   33 1
  31   18   34 1
  32   19   21 1
  33   20   21 1
  34   20   23 1
  35   20   35 1
  36   20   36 1
  37   21   22 1
  38   21   37 1
  39   22   38 1
  40   22   39 1
  41   22   40 1
  42   23   24 1
  43   24   41 1
  44   24   42 1
  45   24   43 1

#	End of record

