#	Name: ASD06170364
#	Creating user name:	WinNT
#	Creation time:	15. 06. 2019 21:05

#	Modifying user name:	WinNT
#	Modification time:	15. 06. 2019 21:05

#	Program:	/corina/corina34_cracker 3.40 0067  02.08.2006

@<TRIPOS>MOLECULE
ASD06170364
  75   80    0    0    0
SMALL
NO_CHARGES


@<TRIPOS>ATOM
   1 N1            -0.0085     0.9541    -0.1407 N.am    
   2 N2             0.1609    -0.4172     0.0725 N.pl3   
   3 C3             1.4562    -0.7496    -0.0860 C.2     
   4 C4             2.1657     0.3914    -0.4060 C.2     
   5 C5             1.1919     1.4942    -0.4370 C.2     
   6 C6             3.6077     0.4856    -0.6638 C.2     
   7 O7             4.3028    -0.5114    -0.6043 O.2     
   8 N8             4.1618     1.6764    -0.9666 N.am    
   9 C9             5.5543     1.8005    -1.0466 C.ar    
  10 C10            6.3305     0.7027    -1.3931 C.ar    
  11 C11            8.3088     2.0491    -1.2052 C.ar    
  12 C12            6.1587     3.0232    -0.7851 C.ar    
  13 O13            9.6610     2.1714    -1.2834 O.3     
  14 N14           11.3679     2.2053    -5.0395 N.ar    
  15 C15           12.1626     2.4096    -3.9816 C.ar    
  16 C16           11.6154     2.4056    -2.6754 C.ar    
  17 C17           10.2291     2.1843    -2.5154 C.ar    
  18 C18            9.4691     1.9809    -3.6525 C.ar    
  19 C19           10.0790     1.9984    -4.9018 C.ar    
  20 O20            1.4237     2.6634    -0.6819 O.2     
  21 C21           -1.2201     1.6486    -0.0653 C.ar    
  22 C22           12.4509     2.6191    -1.5687 C.ar    
  23 C23           13.7859     2.8292    -1.7607 C.ar    
  24 C24           14.3305     2.8343    -3.0527 C.ar    
  25 C25           13.5406     2.6292    -4.1466 C.ar    
  26 C26           -2.0948     1.4101     0.9869 C.ar    
  27 C27           -3.2902     2.0979     1.0586 C.ar    
  28 C28           -3.6168     3.0233     0.0843 C.ar    
  29 C29           -2.7484     3.2628    -0.9649 C.ar    
  30 C30           -1.5488     2.5825    -1.0394 C.ar    
  31 O31           15.6627     3.0466    -3.2180 O.3     
  32 C32           16.1593     3.0404    -4.5579 C.3     
  33 C33            7.5320     3.1463    -0.8644 C.ar    
  34 O34           14.5957     3.0362    -0.6882 O.3     
  35 C35           13.9809     3.0197     0.6017 C.3     
  36 C36            7.7053     0.8264    -1.4724 C.ar    
  37 F37            8.4615    -0.2410    -1.8098 F       
  38 C38            2.0344    -2.1334     0.0613 C.3     
  39 C39           -0.9116    -1.3535     0.4180 C.3     
  40 C40           -1.4449    -1.9923    -0.8384 C.ar    
  41 C41           -0.8859    -3.1662    -1.3078 C.ar    
  42 O42           11.9304     2.2185    -6.3389 O.3     
  43 C43           -1.3750    -3.7521    -2.4604 C.ar    
  44 C44           -2.4234    -3.1643    -3.1432 C.ar    
  45 C45           -2.9830    -1.9909    -2.6733 C.ar    
  46 C46           -2.4967    -1.4073    -1.5184 C.ar    
  47 H47            3.5959     2.4473    -1.1290 H       
  48 H48            5.8607    -0.2475    -1.6003 H       
  49 H49            5.5545     3.8782    -0.5199 H       
  50 H50            8.4061     1.8088    -3.5705 H       
  51 H51            9.4756     1.8384    -5.7832 H       
  52 H52           12.0398     2.6176    -0.5700 H       
  53 H53           13.9734     2.6352    -5.1361 H       
  54 H54           -1.8405     0.6872     1.7479 H       
  55 H55           -3.9709     1.9126     1.8763 H       
  56 H56           -4.5522     3.5598     0.1427 H       
  57 H57           -3.0065     3.9859    -1.7244 H       
  58 H58           -0.8709     2.7700    -1.8590 H       
  59 H59           17.2342     3.2213    -4.5479 H       
  60 H60           15.9582     2.0718    -5.0155 H       
  61 H61           15.6644     3.8235    -5.1325 H       
  62 H62            8.0015     4.0964    -0.6565 H       
  63 H63           13.5147     2.0488     0.7697 H       
  64 H64           14.7367     3.1971     1.3668 H       
  65 H65           13.2222     3.8007     0.6525 H       
  66 H66            2.0064    -2.6434    -0.9016 H       
  67 H67            3.0665    -2.0614     0.4043 H       
  68 H68            1.4486    -2.6965     0.7878 H       
  69 H69           -0.5203    -2.1257     1.0804 H       
  70 H70           -1.7150    -0.8159     0.9215 H       
  71 H71           -0.0668    -3.6254    -0.7743 H       
  72 H72           -0.9379    -4.6689    -2.8275 H       
  73 H73           -2.8051    -3.6217    -4.0441 H       
  74 H74           -3.8018    -1.5315    -3.2070 H       
  75 H75           -2.9338    -0.4905    -1.1512 H       
@<TRIPOS>BOND
   1    1    2 1
   2    1    5 am
   3    1   21 1
   4    2    3 1
   5    2   39 1
   6    3    4 2
   7    3   38 1
   8    4    5 1
   9    4    6 1
  10    5   20 2
  11    6    7 2
  12    6    8 am
  13    8    9 1
  14    8   47 1
  15    9   10 ar
  16    9   12 ar
  17   10   36 ar
  18   10   48 1
  19   11   33 ar
  20   11   13 1
  21   11   36 ar
  22   12   33 ar
  23   12   49 1
  24   13   17 1
  25   14   15 ar
  26   14   19 ar
  27   14   42 1
  28   15   16 ar
  29   15   25 ar
  30   16   17 ar
  31   16   22 ar
  32   17   18 ar
  33   18   19 ar
  34   18   50 1
  35   19   51 1
  36   21   26 ar
  37   21   30 ar
  38   22   23 ar
  39   22   52 1
  40   23   24 ar
  41   23   34 1
  42   24   25 ar
  43   24   31 1
  44   25   53 1
  45   26   27 ar
  46   26   54 1
  47   27   28 ar
  48   27   55 1
  49   28   29 ar
  50   28   56 1
  51   29   30 ar
  52   29   57 1
  53   30   58 1
  54   31   32 1
  55   32   59 1
  56   32   60 1
  57   32   61 1
  58   33   62 1
  59   34   35 1
  60   35   63 1
  61   35   64 1
  62   35   65 1
  63   36   37 1
  64   38   66 1
  65   38   67 1
  66   38   68 1
  67   39   40 1
  68   39   69 1
  69   39   70 1
  70   40   41 ar
  71   40   46 ar
  72   41   43 ar
  73   41   71 1
  74   43   44 ar
  75   43   72 1
  76   44   45 ar
  77   44   73 1
  78   45   46 ar
  79   45   74 1
  80   46   75 1

#	End of record

