#	Name: ASD05380061
#	Creating user name:	WinNT
#	Creation time:	15. 06. 2019 20:59

#	Modifying user name:	WinNT
#	Modification time:	15. 06. 2019 20:59

#	Program:	/corina/corina34_cracker 3.40 0067  02.08.2006

@<TRIPOS>MOLECULE
ASD05380061
  48   52    0    0    0
SMALL
NO_CHARGES


@<TRIPOS>ATOM
   1 C1             0.0117     1.3372     0.1832 C.ar    
   2 C2            -0.0486    -0.0467    -0.0961 C.ar    
   3 C3             1.2457     1.9631     0.3461 C.ar    
   4 C4             2.4025     1.2232     0.2327 C.ar    
   5 C5             2.3470    -0.1367    -0.0422 C.ar    
   6 C6             1.1377    -0.7747    -0.2057 C.ar    
   7 N7            -1.2611    -0.6346    -0.2508 N.2     
   8 C8            -2.3641     0.0428    -0.1484 C.2     
   9 N9            -2.4006     1.3762     0.1174 N.am    
  10 C10           -1.2551     2.0739     0.2988 C.2     
  11 C11           -3.6361     2.0326     0.2107 C.ar    
  12 C12           -4.2530     2.1844     1.4470 C.ar    
  13 C13           -4.2445     2.5382    -0.9323 C.ar    
  14 C14           -5.4636     3.1852    -0.8361 C.ar    
  15 C15           -6.0767     3.3291     0.3948 C.ar    
  16 C16           -5.4720     2.8327     1.5347 C.ar    
  17 C17           -3.6704    -0.6853    -0.3339 C.3     
  18 N18           -3.5124    -1.7177    -1.3612 N.pl3   
  19 C19           -4.6130    -2.1576    -2.0751 C.ar    
  20 N20           -5.8194    -1.6536    -1.8405 N.ar    
  21 O21           -1.2728     3.2675     0.5377 O.2     
  22 C22           -4.4775    -3.1431    -3.0680 C.ar    
  23 C23           -5.6284    -3.5520    -3.7619 C.ar    
  24 N24           -6.7982    -2.9979    -3.4593 N.ar    
  25 C25           -6.8804    -2.0691    -2.5205 C.ar    
  26 N26           -3.4367    -3.8553    -3.5657 N.2     
  27 C27           -3.8656    -4.6551    -4.4978 C.2     
  28 N28           -5.2124    -4.5053    -4.6565 N.pl3   
  29 F29           -3.6460     2.3984    -2.1354 F       
  30 N30           -8.1165    -1.5119    -2.2374 N.pl3   
  31 F31           -3.6631     1.6993     2.5614 F       
  32 C32           -4.0821    -1.3389     0.9868 C.3     
  33 H33            1.2951     3.0207     0.5593 H       
  34 H34            3.3608     1.7052     0.3584 H       
  35 H35            3.2637    -0.7012    -0.1284 H       
  36 H36            1.1070    -1.8330    -0.4189 H       
  37 H37           -5.9368     3.5786    -1.7236 H       
  38 H38           -7.0284     3.8347     0.4665 H       
  39 H39           -5.9541     2.9471     2.4944 H       
  40 H40           -4.4396     0.0217    -0.6447 H       
  41 H41           -2.6361    -2.0929    -1.5410 H       
  42 H42           -3.2469    -5.3366    -5.0627 H       
  43 H43           -5.7731    -4.9853    -5.2860 H       
  44 H44           -8.1957    -0.8301    -1.5520 H       
  45 H45           -8.9030    -1.8035    -2.7245 H       
  46 H46           -5.0709    -1.7846     0.8789 H       
  47 H47           -3.3612    -2.1131     1.2493 H       
  48 H48           -4.1075    -0.5844     1.7731 H       
@<TRIPOS>BOND
   1    1    2 ar
   2    1    3 ar
   3    1   10 1
   4    2    7 1
   5    2    6 ar
   6    3    4 ar
   7    3   33 1
   8    4    5 ar
   9    4   34 1
  10    5    6 ar
  11    5   35 1
  12    6   36 1
  13    7    8 2
  14    8    9 1
  15    8   17 1
  16    9   10 am
  17    9   11 1
  18   10   21 2
  19   11   12 ar
  20   11   13 ar
  21   12   31 1
  22   12   16 ar
  23   13   14 ar
  24   13   29 1
  25   14   15 ar
  26   14   37 1
  27   15   16 ar
  28   15   38 1
  29   16   39 1
  30   17   18 1
  31   17   32 1
  32   17   40 1
  33   18   19 1
  34   18   41 1
  35   19   20 ar
  36   19   22 ar
  37   20   25 ar
  38   22   23 ar
  39   22   26 1
  40   23   24 ar
  41   23   28 1
  42   24   25 ar
  43   25   30 1
  44   26   27 2
  45   27   28 1
  46   27   42 1
  47   28   43 1
  48   30   44 1
  49   30   45 1
  50   32   46 1
  51   32   47 1
  52   32   48 1

#	End of record

