#	Name: ASD03110022
#	Creating user name:	WinNT
#	Creation time:	15. 06. 2019 20:33

#	Modifying user name:	WinNT
#	Modification time:	15. 06. 2019 20:33

#	Program:	/corina/corina34_cracker 3.40 0067  02.08.2006

@<TRIPOS>MOLECULE
ASD03110022
  45   48    0    0    0
SMALL
NO_CHARGES


@<TRIPOS>ATOM
   1 C1            -0.0167     1.3837     0.0096 C.ar    
   2 C2             0.0021    -0.0041     0.0020 C.ar    
   3 C3             1.2033    -0.6765    -0.0126 C.ar    
   4 C4             2.4013     0.0355    -0.0203 C.ar    
   5 C5             2.3914     1.4362    -0.0132 C.ar    
   6 C6             1.1424     2.0967     0.0024 C.ar    
   7 S7             4.0773    -0.5072    -0.0393 S.3     
   8 C8             4.6286     1.1626    -0.0363 C.2     
   9 N9             3.6194     1.9666    -0.0225 N.2     
  10 C10            6.0454     1.5847    -0.0472 C.ar    
  11 C11            6.3691     2.9434    -0.0436 C.ar    
  12 C12            7.0599     0.6249    -0.0554 C.ar    
  13 C13            8.3792     1.0176    -0.0656 C.ar    
  14 C14            8.7033     2.3767    -0.0677 C.ar    
  15 C15            7.6882     3.3368    -0.0543 C.ar    
  16 C16           10.1190     2.7986    -0.0787 C.2     
  17 O17           11.0024     1.9629    -0.0858 O.2     
  18 N18           10.4315     4.1096    -0.0808 N.am    
  19 N19           11.7741     4.5097    -0.0912 N.2     
  20 C20           12.0751     5.7725    -0.0932 C.2     
  21 C21           13.4878     6.1935    -0.1041 C.ar    
  22 C22           13.8142     7.5523    -0.1063 C.ar    
  23 C23           14.5047     5.2349    -0.1065 C.ar    
  24 C24           15.8239     5.6331    -0.1163 C.ar    
  25 C25           16.1435     6.9848    -0.1237 C.ar    
  26 C26           15.1361     7.9411    -0.1161 C.ar    
  27 O27           17.4454     7.3728    -0.1329 O.3     
  28 C28           17.7035     8.7782    -0.1402 C.3     
  29 H29           -0.9630     1.9042     0.0169 H       
  30 H30           -0.9259    -0.5566     0.0079 H       
  31 H31            1.2173    -1.7564    -0.0179 H       
  32 H32            1.1074     3.1761     0.0082 H       
  33 H33            5.5845     3.6854    -0.0329 H       
  34 H34            6.8093    -0.4257    -0.0534 H       
  35 H35            9.1636     0.2754    -0.0715 H       
  36 H36            7.9384     4.3874    -0.0563 H       
  37 H37            9.7268     4.7762    -0.0751 H       
  38 H38           11.2905     6.5147    -0.0869 H       
  39 H39           13.0316     8.2966    -0.1007 H       
  40 H40           14.2571     4.1837    -0.1003 H       
  41 H41           16.6105     4.8931    -0.1177 H       
  42 H42           15.3893     8.9910    -0.1219 H       
  43 H43           18.7798     8.9499    -0.1472 H       
  44 H44           17.2586     9.2247    -1.0295 H       
  45 H45           17.2689     9.2321     0.7504 H       
@<TRIPOS>BOND
   1    1    2 ar
   2    1    6 ar
   3    1   29 1
   4    2    3 ar
   5    2   30 1
   6    3    4 ar
   7    3   31 1
   8    4    5 ar
   9    4    7 1
  10    5    6 ar
  11    5    9 1
  12    6   32 1
  13    7    8 1
  14    8    9 2
  15    8   10 1
  16   10   11 ar
  17   10   12 ar
  18   11   15 ar
  19   11   33 1
  20   12   13 ar
  21   12   34 1
  22   13   14 ar
  23   13   35 1
  24   14   15 ar
  25   14   16 1
  26   15   36 1
  27   16   17 2
  28   16   18 am
  29   18   19 1
  30   18   37 1
  31   19   20 2
  32   20   21 1
  33   20   38 1
  34   21   22 ar
  35   21   23 ar
  36   22   26 ar
  37   22   39 1
  38   23   24 ar
  39   23   40 1
  40   24   25 ar
  41   24   41 1
  42   25   26 ar
  43   25   27 1
  44   26   42 1
  45   27   28 1
  46   28   43 1
  47   28   44 1
  48   28   45 1

#	End of record

