#	Name: ASD03180018
#	Creating user name:	WinNT
#	Creation time:	15. 06. 2019 20:33

#	Modifying user name:	WinNT
#	Modification time:	15. 06. 2019 20:33

#	Program:	/corina/corina34_cracker 3.40 0067  02.08.2006

@<TRIPOS>MOLECULE
ASD03180018
  51   53    0    0    0
SMALL
NO_CHARGES


@<TRIPOS>ATOM
   1 C1             7.4428     3.6367     1.7847 C.ar    
   2 C2             7.2010     4.9774     2.0320 C.ar    
   3 C3             5.9905     5.5406     1.6651 C.ar    
   4 C4             5.0251     4.7641     1.0527 C.ar    
   5 C5             5.2677     3.4256     0.8063 C.ar    
   6 C6             6.4760     2.8622     1.1722 C.ar    
   7 S7             4.0357     2.4367     0.0259 S.o2    
   8 O8             2.7828     3.0150     0.3652 O.2     
   9 N9             4.2135     2.6320    -1.6089 N.am    
  10 O10            4.3692     1.0844     0.3071 O.2     
  11 C11            3.4078     3.6281    -2.3195 C.3     
  12 C12            5.1763     1.8086    -2.3446 C.3     
  13 C13            4.4586     0.6499    -2.9874 C.ar    
  14 C14            4.1899     4.9103    -2.4444 C.2     
  15 N15            3.6446     5.9743    -3.0665 N.am    
  16 C16            4.4060     7.1327    -3.2703 C.ar    
  17 O17            5.3100     4.9847    -1.9850 O.2     
  18 C18            4.0082     0.7528    -4.2903 C.ar    
  19 C19            3.3498    -0.3101    -4.8799 C.ar    
  20 C20            3.1422    -1.4760    -4.1669 C.ar    
  21 C21            3.5934    -1.5792    -2.8643 C.ar    
  22 C22            4.2556    -0.5179    -2.2761 C.ar    
  23 C23            4.2291     7.8862    -4.4232 C.ar    
  24 C24            4.9797     9.0278    -4.6239 C.ar    
  25 C25            5.9104     9.4225    -3.6744 C.ar    
  26 C26            6.0885     8.6699    -2.5217 C.ar    
  27 C27            5.3335     7.5306    -2.3170 C.ar    
  28 O28            6.6491    10.5469    -3.8729 O.3     
  29 C29            6.4141    11.2726    -5.0813 C.3     
  30 F30            8.1453     5.7354     2.6311 F       
  31 Cl31           7.2540     9.1640    -1.3338 Cl      
  32 H32            8.3884     3.1975     2.0664 H       
  33 H33            5.8006     6.5862     1.8578 H       
  34 H34            4.0807     5.2031     0.7667 H       
  35 H35            6.6644     1.8164     0.9792 H       
  36 H36            3.1617     3.2544    -3.3134 H       
  37 H37            2.4890     3.8157    -1.7640 H       
  38 H38            5.6559     2.4118    -3.1155 H       
  39 H39            5.9322     1.4310    -1.6560 H       
  40 H40            2.7251     5.9381    -3.3732 H       
  41 H41            4.1704     1.6637    -4.8473 H       
  42 H42            2.9972    -0.2294    -5.8976 H       
  43 H43            2.6271    -2.3061    -4.6273 H       
  44 H44            3.4309    -2.4900    -2.3071 H       
  45 H45            4.6114    -0.5998    -1.2597 H       
  46 H46            3.5048     7.5791    -5.1631 H       
  47 H47            4.8421     9.6135    -5.5209 H       
  48 H48            5.4683     6.9474    -1.4181 H       
  49 H49            5.3737    11.5960    -5.1144 H       
  50 H50            7.0670    12.1448    -5.1141 H       
  51 H51            6.6224    10.6305    -5.9371 H       
@<TRIPOS>BOND
   1    1    2 ar
   2    1    6 ar
   3    1   32 1
   4    2    3 ar
   5    2   30 1
   6    3    4 ar
   7    3   33 1
   8    4    5 ar
   9    4   34 1
  10    5    6 ar
  11    5    7 1
  12    6   35 1
  13    7    8 2
  14    7    9 am
  15    7   10 2
  16    9   11 1
  17    9   12 1
  18   11   14 1
  19   11   36 1
  20   11   37 1
  21   12   13 1
  22   12   38 1
  23   12   39 1
  24   13   18 ar
  25   13   22 ar
  26   14   15 am
  27   14   17 2
  28   15   16 1
  29   15   40 1
  30   16   23 ar
  31   16   27 ar
  32   18   19 ar
  33   18   41 1
  34   19   20 ar
  35   19   42 1
  36   20   21 ar
  37   20   43 1
  38   21   22 ar
  39   21   44 1
  40   22   45 1
  41   23   24 ar
  42   23   46 1
  43   24   25 ar
  44   24   47 1
  45   25   26 ar
  46   25   28 1
  47   26   27 ar
  48   26   31 1
  49   27   48 1
  50   28   29 1
  51   29   49 1
  52   29   50 1
  53   29   51 1

#	End of record

