#	Name: ASD05250045
#	Creating user name:	WinNT
#	Creation time:	15. 06. 2019 20:58

#	Modifying user name:	WinNT
#	Modification time:	15. 06. 2019 20:58

#	Program:	/corina/corina34_cracker 3.40 0067  02.08.2006

@<TRIPOS>MOLECULE
ASD05250045
  18   18    0    0    0
SMALL
NO_CHARGES


@<TRIPOS>ATOM
   1 C1            -0.0169     1.3923     0.0097 C.ar    
   2 C2             0.0021    -0.0041     0.0020 C.ar    
   3 C3             1.2241    -0.6800    -0.0133 C.ar    
   4 C4             2.4036     0.0342    -0.0207 C.ar    
   5 C5             2.3781     1.4189    -0.0126 C.ar    
   6 C6             1.1695     2.0951     0.0021 C.ar    
   7 C7            -1.2662    -0.7636     0.0105 C.2     
   8 C8            -1.2428    -2.2304     0.0024 C.2     
   9 O9            -2.3293    -0.1722     0.0243 O.2     
  10 C10           -2.3886    -2.9166     0.0101 C.2     
  11 Cl11          -2.3609    -4.6524     0.0005 Cl      
  12 Br12           4.0004     2.3905    -0.0222 Br      
  13 H13           -0.9588     1.9207     0.0170 H       
  14 H14            1.2452    -1.7598    -0.0189 H       
  15 H15            3.3492    -0.4873    -0.0325 H       
  16 H16            1.1562     3.1750     0.0084 H       
  17 H17           -0.2990    -2.7554    -0.0098 H       
  18 H18           -3.3324    -2.3917     0.0223 H       
@<TRIPOS>BOND
   1    1    2 ar
   2    1    6 ar
   3    1   13 1
   4    2    3 ar
   5    2    7 1
   6    3    4 ar
   7    3   14 1
   8    4    5 ar
   9    4   15 1
  10    5    6 ar
  11    5   12 1
  12    6   16 1
  13    7    8 1
  14    7    9 2
  15    8   10 2
  16    8   17 1
  17   10   11 1
  18   10   18 1

#	End of record

