#	Name: ASD03430849
#	Creating user name:	WinNT
#	Creation time:	15. 06. 2019 20:41

#	Modifying user name:	WinNT
#	Modification time:	15. 06. 2019 20:41

#	Program:	/corina/corina34_cracker 3.40 0067  02.08.2006

@<TRIPOS>MOLECULE
ASD03430849
  48   53    0    0    0
SMALL
NO_CHARGES


@<TRIPOS>ATOM
   1 O1            -0.0173     1.4276     0.0099 O.3     
   2 C2             0.0021    -0.0041     0.0020 C.3     
   3 C3             1.0288    -0.4755     1.0407 C.3     
   4 O4             2.3088     0.0535     0.6783 O.3     
   5 C5             2.3527     1.3715     0.3391 C.ar    
   6 C6             1.1907     2.0557     0.0017 C.ar    
   7 C7             3.5707     2.0304     0.3333 C.ar    
   8 C8             3.6435     3.3759    -0.0128 C.ar    
   9 C9             2.4751     4.0470    -0.3606 C.ar    
  10 C10            1.2601     3.3952    -0.3487 C.ar    
  11 O11            4.7239     4.2066    -0.0637 O.3     
  12 C12            2.8770     5.4553    -0.7093 C.3     
  13 C13            4.4005     5.3580    -0.8670 C.3     
  14 N14            1.7013     7.3580    -0.2381 N.am    
  15 C15            2.4876     6.4388     0.3566 C.2     
  16 C16            2.2121     5.9428    -1.9623 C.ar    
  17 C17            2.1802     5.4873    -3.2615 C.ar    
  18 C18            1.4546     6.1737    -4.2188 C.ar    
  19 C19            0.7616     7.3181    -3.8678 C.ar    
  20 C20            0.7914     7.7790    -2.5682 C.ar    
  21 C21            1.5195     7.0946    -1.5979 C.ar    
  22 O22            2.8165     6.4116     1.5237 O.2     
  23 C23            1.1065     8.5003     0.4602 C.3     
  24 O24            3.0079     9.9634     1.2885 O.3     
  25 C25            2.0481     9.6751     0.3944 C.2     
  26 C26            2.0701    10.6125    -0.5701 C.2     
  27 C27            3.1035    11.5182    -0.2374 C.2     
  28 C28            3.6512    11.0802     0.9104 C.2     
  29 C29            4.7929    11.7319     1.6472 C.3     
  30 F30            4.2872    12.6606     2.5631 F       
  31 F31            5.5254    10.7549     2.3300 F       
  32 F32            5.6259    12.3850     0.7325 F       
  33 H33           -0.9852    -0.3866     0.2610 H       
  34 H34            0.2882    -0.3625    -0.9868 H       
  35 H35            0.7466    -0.1108     2.0283 H       
  36 H36            1.0702    -1.5647     1.0485 H       
  37 H37            4.4705     1.4959     0.5999 H       
  38 H38            0.3599     3.9297    -0.6136 H       
  39 H39            4.8879     6.2515    -0.4770 H       
  40 H40            4.6719     5.1913    -1.9094 H       
  41 H41            2.7223     4.5937    -3.5334 H       
  42 H42            1.4296     5.8170    -5.2379 H       
  43 H43            0.1948     7.8535    -4.6151 H       
  44 H44            0.2486     8.6740    -2.3021 H       
  45 H45            0.1618     8.7648    -0.0148 H       
  46 H46            0.9277     8.2360     1.5025 H       
  47 H47            1.4230    10.6632    -1.4332 H       
  48 H48            3.3971    12.3937    -0.7976 H       
@<TRIPOS>BOND
   1    1    2 1
   2    1    6 1
   3    2    3 1
   4    2   33 1
   5    2   34 1
   6    3    4 1
   7    3   35 1
   8    3   36 1
   9    4    5 1
  10    5    6 ar
  11    5    7 ar
  12    6   10 ar
  13    7    8 ar
  14    7   37 1
  15    8    9 ar
  16    8   11 1
  17    9   10 ar
  18    9   12 1
  19   10   38 1
  20   11   13 1
  21   12   13 1
  22   12   15 1
  23   12   16 1
  24   13   39 1
  25   13   40 1
  26   14   15 am
  27   14   21 1
  28   14   23 1
  29   15   22 2
  30   16   17 ar
  31   16   21 ar
  32   17   18 ar
  33   17   41 1
  34   18   19 ar
  35   18   42 1
  36   19   20 ar
  37   19   43 1
  38   20   21 ar
  39   20   44 1
  40   23   25 1
  41   23   45 1
  42   23   46 1
  43   24   25 1
  44   24   28 1
  45   25   26 2
  46   26   27 1
  47   26   47 1
  48   27   28 2
  49   27   48 1
  50   28   29 1
  51   29   30 1
  52   29   31 1
  53   29   32 1

#	End of record

