#	Name: ASD01911404
#	Creating user name:	WinNT
#	Creation time:	15. 06. 2019 19:57

#	Modifying user name:	WinNT
#	Modification time:	15. 06. 2019 19:57

#	Program:	/corina/corina34_cracker 3.40 0067  02.08.2006

@<TRIPOS>MOLECULE
ASD01911404
  34   36    0    0    0
SMALL
NO_CHARGES


@<TRIPOS>ATOM
   1 C1            -0.0167     1.3816     0.0096 C.ar    
   2 C2             0.0021    -0.0041     0.0020 C.ar    
   3 C3            -1.1829    -0.7186     0.0095 C.ar    
   4 C4            -2.3921    -0.0560     0.0246 C.ar    
   5 C5            -2.4205     1.3417     0.0328 C.ar    
   6 C6            -1.2210     2.0584     0.0305 C.ar    
   7 C7            -3.6730     2.0357     0.0485 C.1     
   8 C8            -4.6999     2.6046     0.0613 C.1     
   9 C9            -5.9524     3.2985     0.0770 C.ar    
  10 N10           -5.9638     4.6303     0.0847 N.ar    
  11 C11           -7.0905     5.3061     0.0989 C.ar    
  12 C12           -8.3172     4.6337     0.1054 C.ar    
  13 C13           -8.3414     3.2358     0.0983 C.ar    
  14 C14           -7.1451     2.5668     0.0782 C.ar    
  15 C15           -7.0852     6.8130     0.1095 C.3     
  16 C16           -8.2784     7.3427    -0.6821 C.3     
  17 N17           -9.5225     6.7223    -0.2344 N.am    
  18 C18           -9.5647     5.4215     0.1183 C.2     
  19 O19          -10.6164     4.9049     0.4428 O.2     
  20 F20            1.1446     2.0719     0.0023 F       
  21 C21          -10.7449     7.5269    -0.1670 C.3     
  22 H22            0.9460    -0.5287    -0.0102 H       
  23 H23           -1.1606    -1.7983     0.0031 H       
  24 H24           -3.3157    -0.6158     0.0297 H       
  25 H25           -1.2353     3.1383     0.0372 H       
  26 H26           -9.2777     2.6974     0.1044 H       
  27 H27           -7.1233     1.4870     0.0718 H       
  28 H28           -7.1469     7.1680     1.1382 H       
  29 H29           -6.1617     7.1750    -0.3423 H       
  30 H30           -8.3476     8.4219    -0.5456 H       
  31 H31           -8.1308     7.1255    -1.7399 H       
  32 H32          -11.2698     7.4708    -1.1206 H       
  33 H33          -11.3886     7.1441     0.6250 H       
  34 H34          -10.4859     8.5642     0.0448 H       
@<TRIPOS>BOND
   1    1    2 ar
   2    1   20 1
   3    1    6 ar
   4    2    3 ar
   5    2   22 1
   6    3    4 ar
   7    3   23 1
   8    4    5 ar
   9    4   24 1
  10    5    6 ar
  11    5    7 1
  12    6   25 1
  13    7    8 3
  14    8    9 1
  15    9   10 ar
  16    9   14 ar
  17   10   11 ar
  18   11   12 ar
  19   11   15 1
  20   12   13 ar
  21   12   18 1
  22   13   14 ar
  23   13   26 1
  24   14   27 1
  25   15   16 1
  26   15   28 1
  27   15   29 1
  28   16   17 1
  29   16   30 1
  30   16   31 1
  31   17   18 am
  32   17   21 1
  33   18   19 2
  34   21   32 1
  35   21   33 1
  36   21   34 1

#	End of record

