#	Name: ASD04550007
#	Creating user name:	WinNT
#	Creation time:	15. 06. 2019 20:49

#	Modifying user name:	WinNT
#	Modification time:	15. 06. 2019 20:49

#	Program:	/corina/corina34_cracker 3.40 0067  02.08.2006

@<TRIPOS>MOLECULE
ASD04550007
  31   32    0    0    0
SMALL
NO_CHARGES


@<TRIPOS>ATOM
   1 C1            -0.0168     1.3891     0.0097 C.ar    
   2 C2             0.0021    -0.0041     0.0020 C.ar    
   3 C3             1.2209    -0.6791    -0.0132 C.ar    
   4 C4             2.4021     0.0347    -0.0207 C.ar    
   5 C5             2.3775     1.4177    -0.0130 C.ar    
   6 C6             1.1704     2.0929     0.0021 C.ar    
   7 C7            -1.2712    -0.7661     0.0106 C.ar    
   8 C8             3.6706     2.1916    -0.0207 C.3     
   9 C9             3.7264     3.0791    -1.2658 C.3     
  10 C10           -1.2523    -2.1593     0.0029 C.ar    
  11 C11           -2.4396    -2.8631     0.0114 C.ar    
  12 C12           -3.6466    -2.1878     0.0270 C.ar    
  13 C13           -3.6713    -0.8049     0.0342 C.ar    
  14 C14           -2.4899    -0.0911     0.0321 C.ar    
  15 C15            3.7481     3.0525     1.2137 C.2     
  16 O16            2.8459     3.0390     2.0173 O.2     
  17 O17            4.8195     3.8343     1.4205 O.3     
  18 H18           -0.9588     1.9174     0.0170 H       
  19 H19            1.2413    -1.7589    -0.0189 H       
  20 H20            3.3474    -0.4875    -0.0322 H       
  21 H21            1.1570     3.1728     0.0081 H       
  22 H22            4.5101     1.4964    -0.0321 H       
  23 H23            2.8870     3.7742    -1.2543 H       
  24 H24            4.6617     3.6388    -1.2713 H       
  25 H25            3.6704     2.4564    -2.1586 H       
  26 H26           -0.3104    -2.6876    -0.0100 H       
  27 H27           -2.4261    -3.9430     0.0055 H       
  28 H28           -4.5733    -2.7425     0.0333 H       
  29 H29           -4.6165    -0.2827     0.0461 H       
  30 H30           -2.5103     0.9887     0.0381 H       
  31 H31            4.8240     4.3686     2.2265 H       
@<TRIPOS>BOND
   1    1    2 ar
   2    1    6 ar
   3    1   18 1
   4    2    3 ar
   5    2    7 1
   6    3    4 ar
   7    3   19 1
   8    4    5 ar
   9    4   20 1
  10    5    6 ar
  11    5    8 1
  12    6   21 1
  13    7   10 ar
  14    7   14 ar
  15    8    9 1
  16    8   15 1
  17    8   22 1
  18    9   23 1
  19    9   24 1
  20    9   25 1
  21   10   11 ar
  22   10   26 1
  23   11   12 ar
  24   11   27 1
  25   12   13 ar
  26   12   28 1
  27   13   14 ar
  28   13   29 1
  29   14   30 1
  30   15   16 2
  31   15   17 1
  32   17   31 1

#	End of record

