#	Name: ASD08178238
#	Creating user name:	WinNT
#	Creation time:	15. 06. 2019 21:18

#	Modifying user name:	WinNT
#	Modification time:	15. 06. 2019 21:18

#	Program:	/corina/corina34_cracker 3.40 0067  02.08.2006

@<TRIPOS>MOLECULE
ASD08178238
  63   66    0    0    0
SMALL
NO_CHARGES


@<TRIPOS>ATOM
   1 C1            -0.0184     1.5028     0.0103 C.2     
   2 C2             0.0021    -0.0041     0.0020 C.3     
   3 C3             0.0221    -0.5218     1.4416 C.3     
   4 C4             0.0429    -2.0516     1.4332 C.3     
   5 C5             0.0630    -2.5693     2.8728 C.3     
   6 C6             0.0834    -4.0761     2.8645 C.2     
   7 N7             1.1396    -4.8258     2.8513 N.2     
   8 N8             0.9467    -6.0734     2.8463 N.2     
   9 C9            -0.2824    -6.4936     2.8547 C.2     
  10 S10           -1.3267    -5.1359     2.8788 S.3     
  11 N11           -0.6838    -7.8252     2.8506 N.am    
  12 C12            0.2391    -8.8073     2.8374 C.2     
  13 C13           -0.1960   -10.2501     2.8329 C.3     
  14 O14            1.4197    -8.5298     2.8290 O.2     
  15 C15            1.0193   -11.1412     2.8177 C.ar    
  16 C16            1.5867   -11.5565     4.0079 C.ar    
  17 C17            2.7014   -12.3739     3.9939 C.ar    
  18 C18            3.2485   -12.7762     2.7899 C.ar    
  19 C19            2.6805   -12.3615     1.5998 C.ar    
  20 C20            1.5632   -11.5477     1.6137 C.ar    
  21 N21            1.0171     2.2809     0.0046 N.2     
  22 N22            0.7904     3.5228     0.0134 N.2     
  23 C23           -0.4495     3.9094     0.0274 C.2     
  24 S24           -1.4568     2.5237     0.0218 S.3     
  25 N25           -0.8870     5.2295     0.0390 N.am    
  26 C26            0.0089     6.2364     0.0358 C.2     
  27 C27           -0.4651     7.6668     0.0485 C.3     
  28 C28            0.7256     8.5906     0.0419 C.ar    
  29 C29            1.2599     9.0211    -1.1584 C.ar    
  30 C30            1.2798     9.0121     1.2358 C.ar    
  31 C31            2.3721     9.8596     1.2298 C.ar    
  32 C32            2.9101    10.2851     0.0299 C.ar    
  33 C33            2.3519     9.8683    -1.1644 C.ar    
  34 O34            1.1967     5.9912     0.0228 O.2     
  35 C35            2.9759    10.3199     2.5316 C.3     
  36 N36            4.0210     9.3753     2.9478 N.3     
  37 H37           -0.8875    -0.3767    -0.5057 H       
  38 H38            0.8922    -0.3525    -0.5218 H       
  39 H39            0.9118    -0.1491     1.9494 H       
  40 H40           -0.8680    -0.1733     1.9655 H       
  41 H41           -0.8467    -2.4242     0.9255 H       
  42 H42            0.9330    -2.4000     0.9094 H       
  43 H43            0.9526    -2.1967     3.3806 H       
  44 H44           -0.8271    -2.2209     3.3967 H       
  45 H45           -1.6281    -8.0470     2.8573 H       
  46 H46           -0.7854   -10.4546     3.7267 H       
  47 H47           -0.8003   -10.4446     1.9469 H       
  48 H48            1.1592   -11.2422     4.9486 H       
  49 H49            3.1451   -12.6978     4.9237 H       
  50 H50            4.1199   -13.4141     2.7790 H       
  51 H51            3.1082   -12.6756     0.6590 H       
  52 H52            1.1195   -11.2238     0.6839 H       
  53 H53           -1.8369     5.4256     0.0495 H       
  54 H54           -1.0758     7.8550    -0.8345 H       
  55 H55           -1.0583     7.8451     0.9454 H       
  56 H56            0.8243     8.6950    -2.0912 H       
  57 H57            0.8595     8.6797     2.1735 H       
  58 H58            3.7632    10.9474     0.0252 H       
  59 H59            2.7723    10.2008    -2.1020 H       
  60 H60            3.4125    11.3099     2.3996 H       
  61 H61            2.2004    10.3639     3.2963 H       
  62 H62            4.7192     9.2680     2.2272 H       
  63 H63            4.4416     9.6621     3.8189 H       
@<TRIPOS>BOND
   1    1    2 1
   2    1   21 2
   3    1   24 1
   4    2    3 1
   5    2   37 1
   6    2   38 1
   7    3    4 1
   8    3   39 1
   9    3   40 1
  10    4    5 1
  11    4   41 1
  12    4   42 1
  13    5    6 1
  14    5   43 1
  15    5   44 1
  16    6    7 2
  17    6   10 1
  18    7    8 1
  19    8    9 2
  20    9   10 1
  21    9   11 1
  22   11   12 am
  23   11   45 1
  24   12   13 1
  25   12   14 2
  26   13   15 1
  27   13   46 1
  28   13   47 1
  29   15   16 ar
  30   15   20 ar
  31   16   17 ar
  32   16   48 1
  33   17   18 ar
  34   17   49 1
  35   18   19 ar
  36   18   50 1
  37   19   20 ar
  38   19   51 1
  39   20   52 1
  40   21   22 1
  41   22   23 2
  42   23   24 1
  43   23   25 1
  44   25   26 am
  45   25   53 1
  46   26   27 1
  47   26   34 2
  48   27   28 1
  49   27   54 1
  50   27   55 1
  51   28   29 ar
  52   28   30 ar
  53   29   33 ar
  54   29   56 1
  55   30   31 ar
  56   30   57 1
  57   31   32 ar
  58   31   35 1
  59   32   33 ar
  60   32   58 1
  61   33   59 1
  62   35   36 1
  63   35   60 1
  64   35   61 1
  65   36   62 1
  66   36   63 1

#	End of record

