#	Name: ASD05570008
#	Creating user name:	WinNT
#	Creation time:	15. 06. 2019 21:01

#	Modifying user name:	WinNT
#	Modification time:	15. 06. 2019 21:01

#	Program:	/corina/corina34_cracker 3.40 0067  02.08.2006

@<TRIPOS>MOLECULE
ASD05570008
  37   39    0    0    0
SMALL
NO_CHARGES


@<TRIPOS>ATOM
   1 N1            -0.2361     1.2189     1.2366 N.am    
   2 C2            -0.1570    -0.0883     0.9508 C.2     
   3 N3            -1.1557    -0.7834     0.3884 N.am    
   4 C4            -2.3281    -0.1984     0.0675 C.2     
   5 C5            -2.4907     1.2373     0.3515 C.2     
   6 C6            -1.3515     1.9312     0.9752 C.2     
   7 O7            -1.4115     3.1176     1.2400 O.2     
   8 S8             1.2962    -0.9134     1.3231 S.2     
   9 O9            -3.2272    -0.8400    -0.4434 O.2     
  10 C10           -3.6723     1.9087     0.0475 C.2     
  11 C11           -3.7345     3.3036     0.1613 C.2     
  12 O12           -2.7677     4.1728    -0.2058 O.3     
  13 C13           -4.8040     4.0338     0.6661 C.2     
  14 C14           -4.4433     5.3765     0.5952 C.2     
  15 C15           -3.1756     5.4273     0.0500 C.2     
  16 C16           -2.3986     6.6537    -0.2078 C.ar    
  17 C17           -1.0775     6.7547     0.2378 C.ar    
  18 C18           -0.3566     7.9037    -0.0069 C.ar    
  19 C19           -0.9381     8.9581    -0.6929 C.ar    
  20 C20           -2.2462     8.8662    -1.1371 C.ar    
  21 C21           -2.9782     7.7193    -0.9042 C.ar    
  22 Cl22          -4.6182     7.6051    -1.4621 Cl      
  23 Cl23          -0.0221    10.4012    -0.9962 Cl      
  24 C24            0.9126     1.8879     1.8523 C.3     
  25 C25           -0.9696    -2.2107     0.1157 C.3     
  26 H26           -4.5406     1.3541    -0.2762 H       
  27 H27           -5.7356     3.6361     1.0408 H       
  28 H28           -5.0430     6.2195     0.9052 H       
  29 H29           -0.6226     5.9342     0.7728 H       
  30 H30            0.6640     7.9826     0.3373 H       
  31 H31           -2.6935     9.6920    -1.6705 H       
  32 H32            1.5656     2.2800     1.0725 H       
  33 H33            0.5624     2.7079     2.4792 H       
  34 H34            1.4645     1.1736     2.4632 H       
  35 H35           -1.2912    -2.7908     0.9807 H       
  36 H36           -1.5630    -2.4949    -0.7533 H       
  37 H37            0.0837    -2.4083    -0.0830 H       
@<TRIPOS>BOND
   1    1    2 am
   2    1   24 1
   3    1    6 am
   4    2    3 am
   5    2    8 2
   6    3    4 am
   7    3   25 1
   8    4    5 1
   9    4    9 2
  10    5    6 1
  11    5   10 2
  12    6    7 2
  13   10   11 1
  14   10   26 1
  15   11   12 1
  16   11   13 2
  17   12   15 1
  18   13   14 1
  19   13   27 1
  20   14   15 2
  21   14   28 1
  22   15   16 1
  23   16   17 ar
  24   16   21 ar
  25   17   18 ar
  26   17   29 1
  27   18   19 ar
  28   18   30 1
  29   19   20 ar
  30   19   23 1
  31   20   21 ar
  32   20   31 1
  33   21   22 1
  34   24   32 1
  35   24   33 1
  36   24   34 1
  37   25   35 1
  38   25   36 1
  39   25   37 1

#	End of record

