#	Name: ASD01911097
#	Creating user name:	WinNT
#	Creation time:	15. 06. 2019 19:57

#	Modifying user name:	WinNT
#	Modification time:	15. 06. 2019 19:57

#	Program:	/corina/corina34_cracker 3.40 0067  02.08.2006

@<TRIPOS>MOLECULE
ASD01911097
  48   51    0    0    0
SMALL
NO_CHARGES


@<TRIPOS>ATOM
   1 C1            -0.1519     1.0285    -0.1818 C.2     
   2 O2            -1.1056     1.7806    -0.2287 O.2     
   3 N3             1.1004     1.5245    -0.2295 N.am    
   4 C4             2.2615     0.6461    -0.0321 C.3     
   5 C5             3.1396     1.2316     1.0782 C.3     
   6 C6             3.4979     2.6783     0.7303 C.3     
   7 C7             2.2190     3.5134     0.6348 C.3     
   8 C8             1.3306     2.9528    -0.4861 C.3     
   9 O9             5.3176     0.2195     0.2510 O.3     
  10 N10            6.2107    -0.4830     0.6754 N.2     
  11 C11            5.9758    -0.8079     1.9170 C.2     
  12 N12            4.8081    -0.2307     2.2679 N.2     
  13 C13            4.4014     0.4172     1.2037 C.2     
  14 O14            6.7597    -1.5820     2.7077 O.3     
  15 C15            7.8521    -2.1655     2.1478 C.ar    
  16 C16            8.2210    -1.8469     0.8488 C.ar    
  17 C17            9.3317    -2.4414     0.2821 C.ar    
  18 C18           10.0752    -3.3535     1.0080 C.ar    
  19 C19            9.7094    -3.6731     2.3025 C.ar    
  20 C20            8.6034    -3.0764     2.8762 C.ar    
  21 C21           -0.3655    -0.4298    -0.0662 C.ar    
  22 C22           -1.4173    -0.9251     0.7062 C.ar    
  23 C23           -1.6114    -2.2871     0.8095 C.ar    
  24 C24           -0.7658    -3.1614     0.1500 C.ar    
  25 C25            0.2787    -2.6770    -0.6172 C.ar    
  26 C26            0.4803    -1.3172    -0.7335 C.ar    
  27 C27           -0.9833    -4.6479     0.2682 C.3     
  28 H28            1.9222    -0.3487     0.2567 H       
  29 H29            2.8347     0.5846    -0.9572 H       
  30 H30            2.5957     1.2085     2.0225 H       
  31 H31            4.1430     3.0894     1.5067 H       
  32 H32            4.0200     2.7031    -0.2262 H       
  33 H33            1.6838     3.4689     1.5833 H       
  34 H34            2.4764     4.5485     0.4101 H       
  35 H35            1.8294     3.0756    -1.4474 H       
  36 H36            0.3769     3.4804    -0.4968 H       
  37 H37            7.6402    -1.1350     0.2812 H       
  38 H38            9.6193    -2.1937    -0.7291 H       
  39 H39           10.9430    -3.8175     0.5629 H       
  40 H40           10.2914    -4.3864     2.8672 H       
  41 H41            8.3209    -3.3228     3.8891 H       
  42 H42           -2.0776    -0.2437     1.2220 H       
  43 H43           -2.4249    -2.6716     1.4067 H       
  44 H44            0.9352    -3.3648    -1.1294 H       
  45 H45            1.2934    -0.9402    -1.3362 H       
  46 H46           -1.6515    -4.9817    -0.5256 H       
  47 H47           -0.0270    -5.1633     0.1787 H       
  48 H48           -1.4286    -4.8741     1.2371 H       
@<TRIPOS>BOND
   1    1    2 2
   2    1    3 am
   3    1   21 1
   4    3    4 1
   5    3    8 1
   6    4    5 1
   7    4   28 1
   8    4   29 1
   9    5    6 1
  10    5   13 1
  11    5   30 1
  12    6    7 1
  13    6   31 1
  14    6   32 1
  15    7    8 1
  16    7   33 1
  17    7   34 1
  18    8   35 1
  19    8   36 1
  20    9   10 1
  21    9   13 1
  22   10   11 2
  23   11   12 1
  24   11   14 1
  25   12   13 2
  26   14   15 1
  27   15   16 ar
  28   15   20 ar
  29   16   17 ar
  30   16   37 1
  31   17   18 ar
  32   17   38 1
  33   18   19 ar
  34   18   39 1
  35   19   20 ar
  36   19   40 1
  37   20   41 1
  38   21   22 ar
  39   21   26 ar
  40   22   23 ar
  41   22   42 1
  42   23   24 ar
  43   23   43 1
  44   24   25 ar
  45   24   27 1
  46   25   26 ar
  47   25   44 1
  48   26   45 1
  49   27   46 1
  50   27   47 1
  51   27   48 1

#	End of record

