#	Name: ASD02320042
#	Creating user name:	WinNT
#	Creation time:	15. 06. 2019 20:20

#	Modifying user name:	WinNT
#	Modification time:	15. 06. 2019 20:20

#	Program:	/corina/corina34_cracker 3.40 0067  02.08.2006

@<TRIPOS>MOLECULE
ASD02320042
  83   89    0    0    0
SMALL
NO_CHARGES


@<TRIPOS>ATOM
   1 C1             1.3537    -0.7593     1.0985 C.ar    
   2 C2             1.5845    -2.1279     1.0565 C.ar    
   3 C3             2.8616    -2.6241     0.9230 C.ar    
   4 C4             3.9410    -1.7412     0.8278 C.ar    
   5 C5             3.7016    -0.3485     0.8706 C.ar    
   6 C6             2.4011     0.1317     1.0067 C.ar    
   7 N7             5.2064    -2.1872     0.6966 N.2     
   8 C8             6.2191    -1.3640     0.6077 C.2     
   9 N9             6.0804    -0.0035     0.6400 N.am    
  10 C10            4.8555     0.5575     0.7689 C.2     
  11 C11            7.5771    -1.9306     0.4661 C.ar    
  12 C12            8.5829    -1.5703     1.3631 C.ar    
  13 C13            9.8526    -2.1055     1.2245 C.ar    
  14 C14           10.1220    -2.9976     0.1956 C.ar    
  15 C15            9.1260    -3.3558    -0.6943 C.ar    
  16 C16            7.8562    -2.8327    -0.5623 C.ar    
  17 N17           10.3984     2.9984    -2.6306 N.pl3   
  18 C18           11.5419     2.6916    -3.2858 C.2     
  19 N19           10.5285     4.1731    -2.1207 N.2     
  20 N20           11.6880     4.6533    -2.4026 N.2     
  21 C21           12.3614     3.7580    -3.1338 C.2     
  22 C22           13.7580     3.9071    -3.6800 C.3     
  23 N23           13.7087     4.6209    -4.9584 N.am    
  24 C24           13.6983     5.9887    -4.9732 C.2     
  25 C25           13.6794     3.9229    -6.1177 C.2     
  26 C26           13.6304     4.6909    -7.3705 C.ar    
  27 C27           13.6169     6.1021    -7.2885 C.ar    
  28 N28           13.6552     6.6904    -6.0763 N.2     
  29 C29           13.5979     4.0661    -8.6157 C.ar    
  30 C30           13.5529     4.8356    -9.7580 C.ar    
  31 C31           13.5402     6.2220    -9.6759 C.ar    
  32 C32           13.5705     6.8550    -8.4655 C.ar    
  33 C33           13.7372     6.7075    -3.6821 C.ar    
  34 C34           14.7559     6.4456    -2.7653 C.ar    
  35 C35           14.7860     7.1231    -1.5583 C.ar    
  36 C36           13.8044     8.0596    -1.2623 C.ar    
  37 C37           12.7942     8.3198    -2.1694 C.ar    
  38 C38           12.7581     7.6548    -3.3782 C.ar    
  39 O39           13.6935     2.7058    -6.1229 O.2     
  40 O40            4.7143     1.7661     0.7994 O.2     
  41 O41           15.7765     6.8711    -0.6625 O.3     
  42 S42           17.0050     7.7532    -0.8334 S.o2    
  43 O43           17.9999     7.2283     0.0348 O.2     
  44 O44           17.1972     7.9067    -2.2329 O.2     
  45 O45           16.6484     9.1314    -0.2949 O.3     
  46 Na46          16.5910     9.2342     1.6916 Du      
  47 O47           10.8355    -1.7568     2.0959 O.3     
  48 S48           10.9267    -2.6578     3.3191 S.o2    
  49 O49           11.8522    -2.0411     4.2037 O.2     
  50 O50            9.5904    -2.9712     3.6871 O.2     
  51 O51           11.5663    -3.9638     2.8700 O.3     
  52 Na52          13.5272    -3.8385     2.5551 Du      
  53 C53            7.2652     0.8517     0.5345 C.3     
  54 C54            7.6207     1.0509    -0.9402 C.3     
  55 C55            8.8581     1.9440    -1.0504 C.3     
  56 C56            9.2136     2.1433    -2.5251 C.3     
  57 H57            0.3440    -0.3896     1.1996 H       
  58 H58            0.7517    -2.8117     1.1299 H       
  59 H59            3.0288    -3.6906     0.8922 H       
  60 H60            2.2149     1.1950     1.0401 H       
  61 H61            8.3721    -0.8758     2.1629 H       
  62 H62           11.1132    -3.4132     0.0896 H       
  63 H63            9.3417    -4.0503    -1.4927 H       
  64 H64            7.0806    -3.1145    -1.2591 H       
  65 H65           11.7574     1.7791    -3.8219 H       
  66 H66           14.3666     4.4704    -2.9725 H       
  67 H67           14.1962     2.9206    -3.8313 H       
  68 H68           13.6083     2.9884    -8.6848 H       
  69 H69           13.5276     4.3564   -10.7255 H       
  70 H70           13.5051     6.8083   -10.5823 H       
  71 H71           13.5602     7.9339    -8.4181 H       
  72 H72           15.5184     5.7165    -2.9964 H       
  73 H73           13.8301     8.5864    -0.3198 H       
  74 H74           12.0332     9.0488    -1.9332 H       
  75 H75           11.9677     7.8607    -4.0848 H       
  76 H76            7.0571     1.8189     0.9920 H       
  77 H77            8.1016     0.3788     1.0492 H       
  78 H78            7.8289     0.0837    -1.3977 H       
  79 H79            6.7843     1.5238    -1.4549 H       
  80 H80            8.6500     2.9112    -0.5929 H       
  81 H81            9.6945     1.4711    -0.5357 H       
  82 H82            8.3772     2.6161    -3.0398 H       
  83 H83            9.4217     1.1760    -2.9826 H       
@<TRIPOS>BOND
   1    1    2 ar
   2    1    6 ar
   3    1   57 1
   4    2    3 ar
   5    2   58 1
   6    3    4 ar
   7    3   59 1
   8    4    5 ar
   9    4    7 1
  10    5    6 ar
  11    5   10 1
  12    6   60 1
  13    7    8 2
  14    8    9 1
  15    8   11 1
  16    9   10 am
  17    9   53 1
  18   10   40 2
  19   11   12 ar
  20   11   16 ar
  21   12   13 ar
  22   12   61 1
  23   13   14 ar
  24   13   47 1
  25   14   15 ar
  26   14   62 1
  27   15   16 ar
  28   15   63 1
  29   16   64 1
  30   17   18 1
  31   17   19 1
  32   17   56 1
  33   18   21 2
  34   18   65 1
  35   19   20 2
  36   20   21 1
  37   21   22 1
  38   22   23 1
  39   22   66 1
  40   22   67 1
  41   23   24 1
  42   23   25 am
  43   24   33 1
  44   24   28 2
  45   25   26 1
  46   25   39 2
  47   26   27 ar
  48   26   29 ar
  49   27   28 1
  50   27   32 ar
  51   29   30 ar
  52   29   68 1
  53   30   31 ar
  54   30   69 1
  55   31   32 ar
  56   31   70 1
  57   32   71 1
  58   33   34 ar
  59   33   38 ar
  60   34   35 ar
  61   34   72 1
  62   35   36 ar
  63   35   41 1
  64   36   37 ar
  65   36   73 1
  66   37   38 ar
  67   37   74 1
  68   38   75 1
  69   41   42 1
  70   42   43 2
  71   42   44 2
  72   42   45 1
  73   45   46 1
  74   47   48 1
  75   48   49 2
  76   48   50 2
  77   48   51 1
  78   51   52 1
  79   53   54 1
  80   53   76 1
  81   53   77 1
  82   54   55 1
  83   54   78 1
  84   54   79 1
  85   55   56 1
  86   55   80 1
  87   55   81 1
  88   56   82 1
  89   56   83 1

#	End of record

