#	Name: ASD04880682
#	Creating user name:	WinNT
#	Creation time:	15. 06. 2019 20:53

#	Modifying user name:	WinNT
#	Modification time:	15. 06. 2019 20:53

#	Program:	/corina/corina34_cracker 3.40 0067  02.08.2006

@<TRIPOS>MOLECULE
ASD04880682
  51   53    0    0    0
SMALL
NO_CHARGES


@<TRIPOS>ATOM
   1 C1            -0.3312     2.2596     0.6922 C.ar    
   2 C2            -0.5175     0.8955     0.7689 C.ar    
   3 C3             0.5758     0.0414     0.7648 C.ar    
   4 C4             1.8672     0.5576     0.6828 C.ar    
   5 C5             2.0619     1.9238     0.6051 C.ar    
   6 C6             0.9611     2.7844     0.6096 C.ar    
   7 O7             0.3865    -1.3026     0.8416 O.3     
   8 C8            -0.9635    -1.7639     0.9238 C.3     
   9 N9             2.2920     4.8263     0.3189 N.2     
  10 N10            2.2162     6.2172     0.2847 N.am    
  11 C11            0.8189     6.6230     0.5048 C.3     
  12 C12            0.0756     5.2832     0.6743 C.3     
  13 C13            1.1627     4.2425     0.5275 C.2     
  14 C14            3.2532     7.0541     0.0834 C.2     
  15 C15            4.6531     6.5068    -0.0253 C.3     
  16 O16            3.0597     8.2481    -0.0103 O.2     
  17 C17            4.8163     5.8039    -1.3483 C.ar    
  18 O18            5.5924     7.5802     0.0629 O.3     
  19 C19            5.0480     6.5376    -2.4969 C.ar    
  20 C20            5.1977     5.8929    -3.7103 C.ar    
  21 C21            5.1162     4.5142    -3.7753 C.ar    
  22 C22            4.8855     3.7807    -2.6268 C.ar    
  23 C23            4.7401     4.4253    -1.4124 C.ar    
  24 C24            4.7962     2.2780    -2.6977 C.3     
  25 O25            2.9364    -0.2829     0.6796 O.3     
  26 C26            4.2331     0.3172     0.6569 C.3     
  27 C27            6.8476     7.2085     0.6359 C.3     
  28 H28           -1.1842     2.9220     0.6914 H       
  29 H29           -1.5168     0.4910     0.8326 H       
  30 H30            3.0625     2.3253     0.5419 H       
  31 H31           -1.5124    -1.4408     0.0393 H       
  32 H32           -0.9727    -2.8524     0.9797 H       
  33 H33           -1.4351    -1.3503     1.8153 H       
  34 H34            0.7326     7.2266     1.4083 H       
  35 H35            0.4369     7.1670    -0.3591 H       
  36 H36           -0.3815     5.2218     1.6619 H       
  37 H37           -0.6771     5.1623    -0.1047 H       
  38 H38            4.8311     5.8007     0.7858 H       
  39 H39            5.1117     7.6145    -2.4462 H       
  40 H40            5.3779     6.4660    -4.6077 H       
  41 H41            5.2324     4.0105    -4.7235 H       
  42 H42            4.5635     3.8519    -0.5144 H       
  43 H43            5.7666     1.8445    -2.4559 H       
  44 H44            4.0522     1.9242    -1.9840 H       
  45 H45            4.5051     1.9784    -3.7045 H       
  46 H46            4.3374     0.9232    -0.2430 H       
  47 H47            4.3566     0.9488     1.5367 H       
  48 H48            4.9945    -0.4629     0.6600 H       
  49 H49            7.3070     6.4281     0.0294 H       
  50 H50            7.5042     8.0779     0.6676 H       
  51 H51            6.6889     6.8360     1.6479 H       
@<TRIPOS>BOND
   1    1    2 ar
   2    1    6 ar
   3    1   28 1
   4    2    3 ar
   5    2   29 1
   6    3    4 ar
   7    3    7 1
   8    4    5 ar
   9    4   25 1
  10    5    6 ar
  11    5   30 1
  12    6   13 1
  13    7    8 1
  14    8   31 1
  15    8   32 1
  16    8   33 1
  17    9   10 1
  18    9   13 2
  19   10   11 1
  20   10   14 am
  21   11   12 1
  22   11   34 1
  23   11   35 1
  24   12   13 1
  25   12   36 1
  26   12   37 1
  27   14   15 1
  28   14   16 2
  29   15   17 1
  30   15   18 1
  31   15   38 1
  32   17   19 ar
  33   17   23 ar
  34   18   27 1
  35   19   20 ar
  36   19   39 1
  37   20   21 ar
  38   20   40 1
  39   21   22 ar
  40   21   41 1
  41   22   23 ar
  42   22   24 1
  43   23   42 1
  44   24   43 1
  45   24   44 1
  46   24   45 1
  47   25   26 1
  48   26   46 1
  49   26   47 1
  50   26   48 1
  51   27   49 1
  52   27   50 1
  53   27   51 1

#	End of record

