#	Name: ASD04590421
#	Creating user name:	WinNT
#	Creation time:	15. 06. 2019 20:50

#	Modifying user name:	WinNT
#	Modification time:	15. 06. 2019 20:50

#	Program:	/corina/corina34_cracker 3.40 0067  02.08.2006

@<TRIPOS>MOLECULE
ASD04590421
  46   49    0    0    0
SMALL
NO_CHARGES


@<TRIPOS>ATOM
   1 C1            -0.0170     1.4024     0.0098 C.ar    
   2 C2             0.0021    -0.0041     0.0020 C.ar    
   3 C3            -2.4073    -0.0353     0.0253 C.ar    
   4 C4            -2.4152     1.3738     0.0445 C.ar    
   5 C5            -1.2204     2.0801     0.0306 C.ar    
   6 N6            -3.7024    -0.4431     0.0459 N.2     
   7 C7            -4.4912     0.6024     0.0760 C.2     
   8 N8            -3.7419     1.7502     0.0764 N.pl3   
   9 C9            -5.9675     0.5519     0.1055 C.2     
  10 C10           -6.7594    -0.6197     0.1066 C.2     
  11 C11           -8.0600    -0.2394     0.1389 C.2     
  12 N12           -8.0965     1.1190     0.1576 N.pl3   
  13 N13           -6.7781     1.5914     0.1412 N.2     
  14 N14           -6.2835    -1.9406     0.0792 N.am    
  15 C15           -7.1530    -2.9704     0.0838 C.2     
  16 O16           -8.3497    -2.7556     0.1117 O.2     
  17 C17           -6.6531    -4.3581     0.0550 C.ar    
  18 C18           -1.1937    -0.7192     0.0096 C.ar    
  19 C19           -5.9720    -6.3042    -1.1855 C.ar    
  20 C20           -5.7143    -6.9669     0.0008 C.ar    
  21 C21           -5.9271    -6.3379     1.2140 C.ar    
  22 C22           -6.3949    -5.0378     1.2502 C.ar    
  23 C23           -6.4401    -5.0038    -1.1677 C.ar    
  24 F24           -6.6916    -4.3584    -2.3277 F       
  25 F25           -6.6017    -4.4250     2.4364 F       
  26 C26            1.2879    -0.7218    -0.0146 C.2     
  27 O27            1.3073    -2.0694    -0.0220 O.3     
  28 O28            2.3314    -0.0990    -0.0216 O.2     
  29 O29            1.1501     2.0952     0.0023 O.3     
  30 C30            1.0581     3.5212     0.0109 C.3     
  31 C31            2.4647     4.1231     0.0007 C.3     
  32 H32           -1.2316     3.1600     0.0366 H       
  33 H33           -4.0815     2.6586     0.0960 H       
  34 H34           -8.9153    -0.8987     0.1476 H       
  35 H35           -8.8969     1.6665     0.1811 H       
  36 H36           -5.3290    -2.1119     0.0569 H       
  37 H37           -1.1798    -1.7991     0.0029 H       
  38 H38           -5.8030    -6.8028    -2.1285 H       
  39 H39           -5.3490    -7.9830    -0.0203 H       
  40 H40           -5.7236    -6.8628     2.1357 H       
  41 H41            2.1751    -2.4959    -0.0329 H       
  42 H42            0.5134     3.8555    -0.8722 H       
  43 H43            0.5304     3.8459     0.9077 H       
  44 H44            3.0093     3.7889     0.8837 H       
  45 H45            2.9923     3.7985    -0.8961 H       
  46 H46            2.3945     5.2109     0.0072 H       
@<TRIPOS>BOND
   1    1    2 ar
   2    1   29 1
   3    1    5 ar
   4    2   18 ar
   5    2   26 1
   6    3    4 ar
   7    3    6 1
   8    3   18 ar
   9    4    5 ar
  10    4    8 1
  11    5   32 1
  12    6    7 2
  13    7    8 1
  14    7    9 1
  15    8   33 1
  16    9   10 1
  17    9   13 2
  18   10   11 2
  19   10   14 1
  20   11   12 1
  21   11   34 1
  22   12   13 1
  23   12   35 1
  24   14   15 am
  25   14   36 1
  26   15   16 2
  27   15   17 1
  28   17   23 ar
  29   17   22 ar
  30   18   37 1
  31   19   20 ar
  32   19   23 ar
  33   19   38 1
  34   20   21 ar
  35   20   39 1
  36   21   22 ar
  37   21   40 1
  38   22   25 1
  39   23   24 1
  40   26   27 1
  41   26   28 2
  42   27   41 1
  43   29   30 1
  44   30   31 1
  45   30   42 1
  46   30   43 1
  47   31   44 1
  48   31   45 1
  49   31   46 1

#	End of record

