#	Name: ASD02450001
#	Creating user name:	WinNT
#	Creation time:	15. 06. 2019 20:22

#	Modifying user name:	WinNT
#	Modification time:	15. 06. 2019 20:22

#	Program:	/corina/corina34_cracker 3.40 0067  02.08.2006

@<TRIPOS>MOLECULE
ASD02450001
  36   38    0    0    0
SMALL
NO_CHARGES


@<TRIPOS>ATOM
   1 C1            -0.0158     1.3162     0.0093 C.ar    
   2 N2             0.0021    -0.0041     0.0020 N.ar    
   3 C3             1.1482    -0.6769    -0.0126 C.ar    
   4 C4             2.3509     0.0496    -0.0202 C.ar    
   5 C5             2.2783     1.4530    -0.0120 C.ar    
   6 N6             1.0852     2.0379     0.0026 N.ar    
   7 N7             3.6643    -0.2821    -0.0346 N.2     
   8 C8             4.3848     0.8017    -0.0357 C.2     
   9 N9             3.5758     1.8988    -0.0220 N.pl3   
  10 C10            4.0119     3.2974    -0.0187 C.3     
  11 O11            5.3415     3.4108    -0.5712 O.3     
  12 C12            5.8516     4.6694    -0.0799 C.3     
  13 C13            5.3791     4.7404     1.3892 C.3     
  14 C14            4.1410     3.8170     1.4303 C.3     
  15 C15            7.3799     4.6883    -0.1494 C.3     
  16 P16            7.9093     4.6587    -1.8935 P.3     
  17 O17            7.2716     5.7783    -2.6217 O.2     
  18 O18            9.5103     4.8107    -1.9711 O.3     
  19 O19            7.4697     3.2626    -2.5642 O.3     
  20 N20            1.1569    -2.0607    -0.0196 N.pl3   
  21 O21            5.0172     6.0789     1.7346 O.3     
  22 O22            2.9766     4.5570     1.8025 O.3     
  23 H23           -0.9695     1.8231     0.0165 H       
  24 H24            5.4644     0.8280    -0.0459 H       
  25 H25            3.3124     3.9135    -0.5836 H       
  26 H26            5.4346     5.4975    -0.6530 H       
  27 H27            6.1552     4.3687     2.0583 H       
  28 H28            4.3049     2.9888     2.1199 H       
  29 H29            7.7542     5.5935     0.3286 H       
  30 H30            7.7778     3.8141     0.3660 H       
  31 H31            9.8629     4.8031    -2.8715 H       
  32 H32            7.8513     2.4836    -2.1370 H       
  33 H33            0.3199    -2.5510    -0.0139 H       
  34 H34            1.9999    -2.5404    -0.0303 H       
  35 H35            4.7128     6.1811     2.6468 H       
  36 H36            3.0290     4.9570     2.6814 H       
@<TRIPOS>BOND
   1    1    2 ar
   2    1    6 ar
   3    1   23 1
   4    2    3 ar
   5    3    4 ar
   6    3   20 1
   7    4    5 ar
   8    4    7 1
   9    5    6 ar
  10    5    9 1
  11    7    8 2
  12    8    9 1
  13    8   24 1
  14    9   10 1
  15   10   11 1
  16   10   14 1
  17   10   25 1
  18   11   12 1
  19   12   13 1
  20   12   15 1
  21   12   26 1
  22   13   14 1
  23   13   21 1
  24   13   27 1
  25   14   22 1
  26   14   28 1
  27   15   16 1
  28   15   29 1
  29   15   30 1
  30   16   17 2
  31   16   18 1
  32   16   19 1
  33   18   31 1
  34   19   32 1
  35   20   33 1
  36   20   34 1
  37   21   35 1
  38   22   36 1

#	End of record

