#	Name: ASD01915389
#	Creating user name:	WinNT
#	Creation time:	15. 06. 2019 20:05

#	Modifying user name:	WinNT
#	Modification time:	15. 06. 2019 20:05

#	Program:	/corina/corina34_cracker 3.40 0067  02.08.2006

@<TRIPOS>MOLECULE
ASD01915389
  46   49    0    0    0
SMALL
NO_CHARGES


@<TRIPOS>ATOM
   1 C1            -0.0168     1.3887     0.0097 C.ar    
   2 C2             0.0021    -0.0041     0.0020 C.ar    
   3 N3             1.1537    -0.6628    -0.0121 N.ar    
   4 C4             2.3101    -0.0318    -0.0197 C.ar    
   5 C5             2.3650     1.3500    -0.0128 C.ar    
   6 C6             1.1839     2.0778     0.0019 C.ar    
   7 C7             3.6951     2.0585    -0.0207 C.3     
   8 N8             4.7564     1.1343     0.4048 N.am    
   9 C9             5.7205     0.9808    -0.6998 C.3     
  10 C10            5.5647     2.2702    -1.5442 C.3     
  11 C11            4.0359     2.5190    -1.4536 C.3     
  12 C12            4.8353     0.5285     1.6062 C.2     
  13 O13            3.9802     0.7301     2.4457 O.2     
  14 C14            5.9646    -0.3833     1.9032 C.ar    
  15 C15           -1.2761    -0.7572     0.0102 C.ar    
  16 C16           -1.2662    -2.1504     0.0026 C.ar    
  17 C17           -2.4597    -2.8481     0.0107 C.ar    
  18 C18           -3.6640    -2.1642     0.0259 C.ar    
  19 C19           -3.6786    -0.7792     0.0335 C.ar    
  20 C20           -2.4898    -0.0733     0.0313 C.ar    
  21 F21           -2.4514    -4.1991     0.0034 F       
  22 C22            1.2075     3.5846     0.0093 C.3     
  23 C23            6.0481    -1.0110     3.1451 C.ar    
  24 N24            7.0567    -1.8236     3.4052 N.ar    
  25 C25            7.9846    -2.0411     2.4902 C.ar    
  26 C26            7.9045    -1.4174     1.2531 C.ar    
  27 N27            6.8988    -0.6097     0.9836 N.ar    
  28 F28           -4.8562    -0.1172     0.0479 F       
  29 H29           -0.9550     1.9236     0.0171 H       
  30 H30            3.2276    -0.6014    -0.0312 H       
  31 H31            3.6612     2.9177     0.6491 H       
  32 H32            6.7353     0.9032    -0.3097 H       
  33 H33            5.4752     0.1035    -1.2983 H       
  34 H34            6.1219     3.0963    -1.1023 H       
  35 H35            5.8726     2.1011    -2.5761 H       
  36 H36            3.5029     1.9168    -2.1893 H       
  37 H37            3.8092     3.5774    -1.5827 H       
  38 H38           -0.3276    -2.6845    -0.0100 H       
  39 H39           -4.5945    -2.7124     0.0315 H       
  40 H40           -2.5021     1.0066     0.0375 H       
  41 H41            1.2036     3.9530    -1.0165 H       
  42 H42            0.3282     3.9592     0.5333 H       
  43 H43            2.1078     3.9314     0.5165 H       
  44 H44            5.2899    -0.8331     3.8933 H       
  45 H45            8.8079    -2.7059     2.7058 H       
  46 H46            8.6655    -1.5978     0.5083 H       
@<TRIPOS>BOND
   1    1    2 ar
   2    1    6 ar
   3    1   29 1
   4    2    3 ar
   5    2   15 1
   6    3    4 ar
   7    4    5 ar
   8    4   30 1
   9    5    6 ar
  10    5    7 1
  11    6   22 1
  12    7    8 1
  13    7   11 1
  14    7   31 1
  15    8    9 1
  16    8   12 am
  17    9   10 1
  18    9   32 1
  19    9   33 1
  20   10   11 1
  21   10   34 1
  22   10   35 1
  23   11   36 1
  24   11   37 1
  25   12   13 2
  26   12   14 1
  27   14   23 ar
  28   14   27 ar
  29   15   16 ar
  30   15   20 ar
  31   16   17 ar
  32   16   38 1
  33   17   18 ar
  34   17   21 1
  35   18   19 ar
  36   18   39 1
  37   19   20 ar
  38   19   28 1
  39   20   40 1
  40   22   41 1
  41   22   42 1
  42   22   43 1
  43   23   24 ar
  44   23   44 1
  45   24   25 ar
  46   25   26 ar
  47   25   45 1
  48   26   27 ar
  49   26   46 1

#	End of record

