#	Name: ASD01810026
#	Creating user name:	WinNT
#	Creation time:	15. 06. 2019 19:23

#	Modifying user name:	WinNT
#	Modification time:	15. 06. 2019 19:23

#	Program:	/corina/corina34_cracker 3.40 0067  02.08.2006

@<TRIPOS>MOLECULE
ASD01810026
  47   51    0    0    0
SMALL
NO_CHARGES


@<TRIPOS>ATOM
   1 N1            -0.0163     1.3479     0.0095 N.am    
   2 C2             0.0021    -0.0041     0.0020 C.2     
   3 C3            -1.2676    -0.7370    -0.3574 C.3     
   4 C4            -2.5160    -0.1239     0.2723 C.3     
   5 C5            -2.5124     1.3731     0.1208 C.ar    
   6 C6            -1.2663     1.9808     0.0316 C.ar    
   7 C7            -3.6305     2.1615     0.0680 C.ar    
   8 C8            -3.5036     3.5489    -0.0485 C.ar    
   9 C9            -2.2643     4.1483    -0.0987 C.ar    
  10 C10           -1.1114     3.3586    -0.0513 C.ar    
  11 C11            0.9558     2.3072     0.0053 C.ar    
  12 C12            0.3353     3.5830    -0.0415 C.ar    
  13 C13            1.0904     4.7586    -0.0671 C.ar    
  14 C14            2.4742     4.6214    -0.0386 C.ar    
  15 C15            3.0771     3.3796     0.0130 C.ar    
  16 C16            2.3454     2.2038     0.0385 C.ar    
  17 C17           -4.7733     4.3584    -0.1226 C.3     
  18 N18           -4.5086     5.7655     0.1897 N.3     
  19 C19           -3.4204     6.2790    -0.6575 C.3     
  20 C20           -2.1088     5.6435    -0.1965 C.3     
  21 O21            1.0139    -0.6129     0.2770 O.2     
  22 O22            0.4993     5.9808    -0.1180 O.3     
  23 C23            1.3632     7.1188    -0.1405 C.3     
  24 C24           -3.7583    -0.6960    -0.4135 C.3     
  25 C25           -2.5553    -0.4790     1.7600 C.3     
  26 H26           -1.3819    -0.7281    -1.4414 H       
  27 H27           -1.1803    -1.7716    -0.0257 H       
  28 H28           -4.6111     1.7114     0.1160 H       
  29 H29            3.0922     5.5069    -0.0576 H       
  30 H30            4.1554     3.3237     0.0356 H       
  31 H31            2.8340     1.2415     0.0795 H       
  32 H32           -5.1876     4.2854    -1.1281 H       
  33 H33           -5.4945     3.9615     0.5919 H       
  34 H34           -5.3431     6.3226     0.0836 H       
  35 H35           -3.6100     6.0157    -1.6981 H       
  36 H36           -3.3580     7.3626    -0.5581 H       
  37 H37           -1.8371     6.0433     0.7804 H       
  38 H38           -1.3217     5.8789    -0.9129 H       
  39 H39            1.9764     7.1273     0.7607 H       
  40 H40            2.0078     7.0684    -1.0180 H       
  41 H41            0.7645     8.0287    -0.1812 H       
  42 H42           -3.7779    -1.7783    -0.2855 H       
  43 H43           -4.6525    -0.2611     0.0329 H       
  44 H44           -3.7294    -0.4563    -1.4764 H       
  45 H45           -1.6662    -0.0841     2.2515 H       
  46 H46           -3.4453    -0.0433     2.2141 H       
  47 H47           -2.5826    -1.5627     1.8743 H       
@<TRIPOS>BOND
   1    1    2 am
   2    1   11 1
   3    1    6 1
   4    2    3 1
   5    2   21 2
   6    3    4 1
   7    3   26 1
   8    3   27 1
   9    4    5 1
  10    4   24 1
  11    4   25 1
  12    5    6 ar
  13    5    7 ar
  14    6   10 ar
  15    7    8 ar
  16    7   28 1
  17    8    9 ar
  18    8   17 1
  19    9   10 ar
  20    9   20 1
  21   10   12 1
  22   11   12 ar
  23   11   16 ar
  24   12   13 ar
  25   13   14 ar
  26   13   22 1
  27   14   15 ar
  28   14   29 1
  29   15   16 ar
  30   15   30 1
  31   16   31 1
  32   17   18 1
  33   17   32 1
  34   17   33 1
  35   18   19 1
  36   18   34 1
  37   19   20 1
  38   19   35 1
  39   19   36 1
  40   20   37 1
  41   20   38 1
  42   22   23 1
  43   23   39 1
  44   23   40 1
  45   23   41 1
  46   24   42 1
  47   24   43 1
  48   24   44 1
  49   25   45 1
  50   25   46 1
  51   25   47 1

#	End of record

