#	Name: ASD01120332
#	Creating user name:	WinNT
#	Creation time:	15. 06. 2019 18:59

#	Modifying user name:	WinNT
#	Modification time:	15. 06. 2019 18:59

#	Program:	/corina/corina34_cracker 3.40 0067  02.08.2006

@<TRIPOS>MOLECULE
ASD01120332
  38   40    0    0    0
SMALL
NO_CHARGES


@<TRIPOS>ATOM
   1 C1            -2.2071     1.4764    -0.5417 C.3     
   2 C2            -2.1833    -0.0303    -0.5569 C.2     
   3 O3            -3.0887    -0.6459    -1.0786 O.2     
   4 N4            -1.1558    -0.6938     0.0094 N.am    
   5 C5            -1.1868    -2.0902     0.0948 C.ar    
   6 C6            -0.0111    -2.8203    -0.0297 C.ar    
   7 C7            -0.0371    -4.1999     0.0541 C.ar    
   8 C8            -1.2308    -4.8606     0.2618 C.ar    
   9 C9            -2.4164    -4.1361     0.3885 C.ar    
  10 C10           -2.3899    -2.7452     0.3094 C.ar    
  11 C11           -3.6990    -4.8432     0.6115 C.ar    
  12 C12           -4.5452    -4.4495     1.6373 C.ar    
  13 C13           -5.7457    -5.1103     1.8470 C.ar    
  14 C14           -6.1199    -6.1657     1.0441 C.ar    
  15 C15           -5.2920    -6.5842     0.0058 C.ar    
  16 C16           -4.0723    -5.9194    -0.2220 C.ar    
  17 C17           -3.4544    -6.5520    -1.3231 C.2     
  18 C18           -4.2736    -7.5565    -1.7375 C.2     
  19 N19           -5.3985    -7.5811    -0.9355 N.pl3   
  20 C20           -4.0071    -8.4653    -2.8597 C.2     
  21 O21           -2.9823    -8.3514    -3.5040 O.2     
  22 O22           -4.8990    -9.4261    -3.1757 O.3     
  23 N23           -7.4061    -6.8572     1.2865 N.pl3   
  24 O24           -8.1317    -6.4930     2.1945 O.2     
  25 O25           -7.7389    -7.7904     0.5780 O.2     
  26 H26           -3.1081     1.8307    -1.0425 H       
  27 H27           -2.2019     1.8295     0.4895 H       
  28 H28           -1.3284     1.8589    -1.0611 H       
  29 H29           -0.3949    -0.2033     0.3577 H       
  30 H30            0.9257    -2.3083    -0.1927 H       
  31 H31            0.8796    -4.7625    -0.0437 H       
  32 H32           -1.2473    -5.9385     0.3260 H       
  33 H33           -3.3047    -2.1796     0.4071 H       
  34 H34           -4.2674    -3.6241     2.2761 H       
  35 H35           -6.3954    -4.7943     2.6498 H       
  36 H36           -2.5024    -6.2862    -1.7583 H       
  37 H37           -6.1388    -8.2023    -1.0194 H       
  38 H38           -4.6797   -10.0002    -3.9224 H       
@<TRIPOS>BOND
   1    1    2 1
   2    1   26 1
   3    1   27 1
   4    1   28 1
   5    2    3 2
   6    2    4 am
   7    4    5 1
   8    4   29 1
   9    5    6 ar
  10    5   10 ar
  11    6    7 ar
  12    6   30 1
  13    7    8 ar
  14    7   31 1
  15    8    9 ar
  16    8   32 1
  17    9   10 ar
  18    9   11 1
  19   10   33 1
  20   11   12 ar
  21   11   16 ar
  22   12   13 ar
  23   12   34 1
  24   13   14 ar
  25   13   35 1
  26   14   15 ar
  27   14   23 1
  28   15   16 ar
  29   15   19 1
  30   16   17 1
  31   17   18 2
  32   17   36 1
  33   18   19 1
  34   18   20 1
  35   19   37 1
  36   20   21 2
  37   20   22 1
  38   22   38 1
  39   23   24 2
  40   23   25 2

#	End of record

