#	Name: ASD03091758
#	Creating user name:	WinNT
#	Creation time:	15. 06. 2019 20:31

#	Modifying user name:	WinNT
#	Modification time:	15. 06. 2019 20:31

#	Program:	/corina/corina34_cracker 3.40 0067  02.08.2006

@<TRIPOS>MOLECULE
ASD03091758
  34   36    0    0    0
SMALL
NO_CHARGES


@<TRIPOS>ATOM
   1 C1            -0.0215     1.3353    -0.0504 C.3     
   2 C2             0.1237    -0.1848    -0.1472 C.3     
   3 N3             0.8369    -0.6860     1.0345 N.3     
   4 C4             0.0891    -0.4006     2.2657 C.3     
   5 C5            -0.0577     1.1128     2.4364 C.3     
   6 C6             1.3330     1.7496     2.5300 C.3     
   7 N7             2.0307     1.5496     1.2525 N.am    
   8 C8             1.3699     1.9746     0.0110 C.3     
   9 C9             3.2546     0.9861     1.2201 C.2     
  10 O10            3.7764     0.7276     0.1536 O.2     
  11 C11            3.9637     0.6818     2.4848 C.ar    
  12 C12            4.6876    -0.5049     2.6350 C.ar    
  13 C13           -0.7937     1.6905     1.2238 C.3     
  14 C14            3.9325     1.5761     3.5591 C.ar    
  15 C15            4.6078     1.2523     4.7199 C.ar    
  16 N16            5.2745     0.1197     4.8217 N.ar    
  17 C17            5.3338    -0.7484     3.8316 C.ar    
  18 H18           -0.5562     1.7075    -0.9242 H       
  19 H19           -0.8647    -0.6417    -0.1957 H       
  20 H20            0.6858    -0.4394    -1.0457 H       
  21 H21            1.0296    -1.6728     0.9490 H       
  22 H22           -0.8990    -0.8567     2.2044 H       
  23 H23            0.6262    -0.8120     3.1204 H       
  24 H24           -0.6186     1.3250     3.3466 H       
  25 H25            1.2337     2.8167     2.7290 H       
  26 H26            1.8983     1.2768     3.3331 H       
  27 H27            1.9594     1.6500    -0.8464 H       
  28 H28            1.2739     3.0603     0.0013 H       
  29 H29            4.7404    -1.2206     1.8280 H       
  30 H30           -0.8590     2.7743     1.3198 H       
  31 H31           -1.7970     1.2677     1.1713 H       
  32 H32            3.3889     2.5062     3.4825 H       
  33 H33            4.5896     1.9366     5.5553 H       
  34 H34            5.8919    -1.6642     3.9588 H       
@<TRIPOS>BOND
   1    1    2 1
   2    1    8 1
   3    1   13 1
   4    1   18 1
   5    2    3 1
   6    2   19 1
   7    2   20 1
   8    3    4 1
   9    3   21 1
  10    4    5 1
  11    4   22 1
  12    4   23 1
  13    5    6 1
  14    5   13 1
  15    5   24 1
  16    6    7 1
  17    6   25 1
  18    6   26 1
  19    7    8 1
  20    7    9 am
  21    8   27 1
  22    8   28 1
  23    9   10 2
  24    9   11 1
  25   11   12 ar
  26   11   14 ar
  27   12   17 ar
  28   12   29 1
  29   13   30 1
  30   13   31 1
  31   14   15 ar
  32   14   32 1
  33   15   16 ar
  34   15   33 1
  35   16   17 ar
  36   17   34 1

#	End of record

