#	Name: ASD03091707
#	Creating user name:	WinNT
#	Creation time:	15. 06. 2019 20:31

#	Modifying user name:	WinNT
#	Modification time:	15. 06. 2019 20:31

#	Program:	/corina/corina34_cracker 3.40 0067  02.08.2006

@<TRIPOS>MOLECULE
ASD03091707
  55   58    0    0    0
SMALL
NO_CHARGES


@<TRIPOS>ATOM
   1 C1            -0.0645     1.3755    -0.2015 C.2     
   2 C2             0.0346     0.0515     0.0403 C.2     
   3 N3            -1.1175    -0.5493     0.2449 N.2     
   4 C4            -2.1862     0.1875     0.1907 C.2     
   5 S5            -1.7703     1.8120    -0.1408 S.3     
   6 N6            -3.4756    -0.2754     0.3801 N.3     
   7 C7            -4.4515     0.8166     0.2515 C.3     
   8 C8            -3.6096    -0.9430     1.6831 C.3     
   9 C9            -5.0321    -1.4908     1.8258 C.3     
  10 O10           -5.9677    -0.4209     1.6669 O.3     
  11 C11           -5.8656     0.2512     0.4087 C.3     
  12 C12            1.0585     2.2964    -0.4642 C.ar    
  13 C13            1.0177     3.1938    -1.5397 C.ar    
  14 C14            2.1930     2.3020     0.3583 C.ar    
  15 C15            3.2179     3.1790     0.0763 C.ar    
  16 N16            3.1404     4.0051    -0.9505 N.ar    
  17 C17            2.0884     4.0361    -1.7476 C.ar    
  18 C18            1.3534    -0.6769     0.0732 C.3     
  19 C19            4.4438     3.1957     0.9526 C.3     
  20 N20            1.8256    -0.7699     1.4569 N.am    
  21 C21            2.9932    -1.3848     1.7306 C.2     
  22 C22            3.4686    -1.4785     3.1239 C.2     
  23 O23            3.6547    -1.8624     0.8292 O.2     
  24 C24            2.0604     5.0020    -2.9039 C.3     
  25 C25           -6.8815     1.3939     0.3558 C.3     
  26 C26            4.6241    -2.0667     3.5607 C.2     
  27 C27            4.5917    -1.8776     4.9602 C.2     
  28 N28            3.4913    -1.2344     5.2228 N.2     
  29 O29            2.8560    -0.9972     4.2220 O.3     
  30 C30            5.6285    -2.3322     5.9549 C.3     
  31 H31           -4.2690     1.5610     1.0265 H       
  32 H32           -4.3519     1.2801    -0.7300 H       
  33 H33           -2.8954    -1.7639     1.7465 H       
  34 H34           -3.4137    -0.2267     2.4809 H       
  35 H35           -5.2097    -2.2463     1.0605 H       
  36 H36           -5.1531    -1.9365     2.8132 H       
  37 H37           -6.0674    -0.4537    -0.3979 H       
  38 H38            0.1604     3.2247    -2.1958 H       
  39 H39            2.2630     1.6295     1.2005 H       
  40 H40            1.2251    -1.6793    -0.3351 H       
  41 H41            2.0844    -0.1321    -0.5243 H       
  42 H42            5.1792     2.4923     0.5620 H       
  43 H43            4.8700     4.1989     0.9622 H       
  44 H44            4.1691     2.9080     1.9674 H       
  45 H45            1.2978    -0.3888     2.1761 H       
  46 H46            2.4895     4.5259    -3.7856 H       
  47 H47            1.0299     5.2901    -3.1119 H       
  48 H48            2.6415     5.8888    -2.6508 H       
  49 H49           -6.6775     2.0990     1.1616 H       
  50 H50           -6.8032     1.9057    -0.6033 H       
  51 H51           -7.8878     0.9912     0.4716 H       
  52 H52            5.3837    -2.5604     2.9728 H       
  53 H53            6.3749    -1.5487     6.0855 H       
  54 H54            5.1482    -2.5396     6.9112 H       
  55 H55            6.1122    -3.2372     5.5875 H       
@<TRIPOS>BOND
   1    1    2 2
   2    1   12 1
   3    1    5 1
   4    2    3 1
   5    2   18 1
   6    3    4 2
   7    4    5 1
   8    4    6 1
   9    6    7 1
  10    6    8 1
  11    7   11 1
  12    7   31 1
  13    7   32 1
  14    8    9 1
  15    8   33 1
  16    8   34 1
  17    9   10 1
  18    9   35 1
  19    9   36 1
  20   10   11 1
  21   11   25 1
  22   11   37 1
  23   12   13 ar
  24   12   14 ar
  25   13   17 ar
  26   13   38 1
  27   14   15 ar
  28   14   39 1
  29   15   16 ar
  30   15   19 1
  31   16   17 ar
  32   17   24 1
  33   18   20 1
  34   18   40 1
  35   18   41 1
  36   19   42 1
  37   19   43 1
  38   19   44 1
  39   20   21 am
  40   20   45 1
  41   21   22 1
  42   21   23 2
  43   22   26 2
  44   22   29 1
  45   24   46 1
  46   24   47 1
  47   24   48 1
  48   25   49 1
  49   25   50 1
  50   25   51 1
  51   26   27 1
  52   26   52 1
  53   27   28 2
  54   27   30 1
  55   28   29 1
  56   30   53 1
  57   30   54 1
  58   30   55 1

#	End of record

