#	Name: ASD01148491
#	Creating user name:	WinNT
#	Creation time:	15. 06. 2019 19:02

#	Modifying user name:	WinNT
#	Modification time:	15. 06. 2019 19:02

#	Program:	/corina/corina34_cracker 3.40 0067  02.08.2006

@<TRIPOS>MOLECULE
ASD01148491
  51   55    0    0    0
SMALL
NO_CHARGES


@<TRIPOS>ATOM
   1 C1            -0.0179     1.4351     0.0450 C.ar    
   2 C2            -0.0166     0.0528     0.0405 C.ar    
   3 C3             1.1811    -0.6371     0.0175 C.ar    
   4 C4             2.3774     0.0553    -0.0013 C.ar    
   5 C5             2.3760     1.4376     0.0023 C.ar    
   6 C6             1.1784     2.1275     0.0267 C.ar    
   7 C7             3.6801     2.1925    -0.0178 C.3     
   8 O8             4.6901     1.4586    -0.7395 O.3     
   9 C9             3.5608     3.4817    -0.8651 C.3     
  10 C10            4.0473     3.0268    -2.2280 C.2     
  11 N11            4.6599     1.8982    -2.0830 N.2     
  12 C12            3.8541     3.7471    -3.4981 C.ar    
  13 C13            4.3771     3.1929    -4.7445 C.ar    
  14 C14            3.1691     4.9542    -3.5194 C.ar    
  15 C15            2.9731     5.6520    -4.6978 C.ar    
  16 C16            3.4532     5.1751    -5.9100 C.ar    
  17 C17            4.1769     3.9065    -5.9498 C.ar    
  18 C18            3.2293     5.9405    -7.1493 C.2     
  19 O19            3.7411     5.5755    -8.1902 O.2     
  20 N20            2.4571     7.0449    -7.1290 N.am    
  21 C21            4.6784     3.3870    -7.1499 C.ar    
  22 C22            5.0689     1.9753    -4.7711 C.ar    
  23 C23            4.1465     2.5120     1.4040 C.3     
  24 F24            4.3115     1.3211     2.1194 F       
  25 F25            5.3650     3.1975     1.3521 F       
  26 F26            3.1895     3.3096     2.0405 F       
  27 C27            2.2462     7.7659    -8.2963 C.ar    
  28 N28            1.4847     8.8487    -8.2584 N.ar    
  29 N29            2.8156     7.3573    -9.4200 N.ar    
  30 C30            2.6352     8.0211   -10.5498 C.ar    
  31 C31            1.8394     9.1560   -10.5473 C.ar    
  32 C32            1.2633     9.5584    -9.3524 C.ar    
  33 C33            5.5398     1.4942    -5.9566 C.ar    
  34 C34            5.3476     2.1992    -7.1418 C.ar    
  35 H35           -0.9537     1.9741     0.0584 H       
  36 H36           -0.9512    -0.4882     0.0552 H       
  37 H37            1.1821    -1.7171     0.0147 H       
  38 H38            3.3131    -0.4837    -0.0185 H       
  39 H39            1.1773     3.2075     0.0292 H       
  40 H40            2.5248     3.8166    -0.9161 H       
  41 H41            4.2034     4.2671    -0.4673 H       
  42 H42            2.7802     5.3572    -2.5959 H       
  43 H43            2.4347     6.5879    -4.6743 H       
  44 H44            2.0488     7.3360    -6.2987 H       
  45 H45            4.5355     3.9239    -8.0760 H       
  46 H46            5.2287     1.4211    -3.8580 H       
  47 H47            3.1025     7.6832   -11.4629 H       
  48 H48            1.6752     9.7169   -11.4555 H       
  49 H49            0.6379    10.4381    -9.3160 H       
  50 H50            6.0731     0.5553    -5.9761 H       
  51 H51            5.7336     1.7993    -8.0678 H       
@<TRIPOS>BOND
   1    1    2 ar
   2    1    6 ar
   3    1   35 1
   4    2    3 ar
   5    2   36 1
   6    3    4 ar
   7    3   37 1
   8    4    5 ar
   9    4   38 1
  10    5    6 ar
  11    5    7 1
  12    6   39 1
  13    7    8 1
  14    7    9 1
  15    7   23 1
  16    8   11 1
  17    9   10 1
  18    9   40 1
  19    9   41 1
  20   10   11 2
  21   10   12 1
  22   12   13 ar
  23   12   14 ar
  24   13   22 ar
  25   13   17 ar
  26   14   15 ar
  27   14   42 1
  28   15   16 ar
  29   15   43 1
  30   16   17 ar
  31   16   18 1
  32   17   21 ar
  33   18   19 2
  34   18   20 am
  35   20   27 1
  36   20   44 1
  37   21   34 ar
  38   21   45 1
  39   22   33 ar
  40   22   46 1
  41   23   24 1
  42   23   25 1
  43   23   26 1
  44   27   28 ar
  45   27   29 ar
  46   28   32 ar
  47   29   30 ar
  48   30   31 ar
  49   30   47 1
  50   31   32 ar
  51   31   48 1
  52   32   49 1
  53   33   34 ar
  54   33   50 1
  55   34   51 1

#	End of record

