#	Name: ASD05940024
#	Creating user name:	WinNT
#	Creation time:	15. 06. 2019 21:04

#	Modifying user name:	WinNT
#	Modification time:	15. 06. 2019 21:04

#	Program:	/corina/corina34_cracker 3.40 0067  02.08.2006

@<TRIPOS>MOLECULE
ASD05940024
  62   65    0    0    0
SMALL
NO_CHARGES


@<TRIPOS>ATOM
   1 N1            -0.0245     1.3267    -0.0939 N.ar    
   2 C2            -0.0012     0.0024    -0.0492 C.ar    
   3 N3             1.1336    -0.6840    -0.0413 N.ar    
   4 C4             2.3029    -0.0576    -0.0784 C.ar    
   5 C5             2.3187     1.3391    -0.1294 C.ar    
   6 C6             1.1048     2.0273    -0.1348 C.ar    
   7 N7             3.4905    -0.7694    -0.0619 N.3     
   8 C8             4.5244    -0.1333    -0.8846 C.3     
   9 C9             4.6461     1.3262    -0.5307 C.2     
  10 N10            3.5389     2.0183    -0.1779 N.am    
  11 N11            1.0769     3.4149    -0.1824 N.pl3   
  12 C12           -1.2862    -0.7362    -0.0062 C.2     
  13 C13            3.2746    -2.1632    -0.4725 C.3     
  14 O14            5.7270     1.8756    -0.5624 O.2     
  15 N15           -2.4464    -0.0629     0.1238 N.am    
  16 C16           -3.7221    -0.7781     0.0370 C.3     
  17 C17           -4.1370    -1.2520     1.4313 C.3     
  18 C18           -5.4692    -1.9989     1.3406 C.3     
  19 C19            4.6062    -2.8378    -0.6800 C.ar    
  20 C20            5.2404    -3.4931     0.3647 C.ar    
  21 C21            5.2235    -2.8228    -1.9212 C.ar    
  22 C22            6.4447    -3.4522    -2.0737 C.ar    
  23 N23            7.0213    -4.0612    -1.0562 N.ar    
  24 C24            6.4606    -4.1002     0.1369 C.ar    
  25 C25            7.1619    -4.8097     1.2665 C.3     
  26 C26            7.6874    -7.0049     2.1548 C.3     
  27 N27            6.8400    -6.2422     1.2198 N.3     
  28 C28            8.4202    -8.0845     1.3309 C.3     
  29 C29            7.5186    -8.2399     0.0780 C.3     
  30 C30            7.0346    -6.7849    -0.1416 C.3     
  31 O31           -1.2931    -1.9485    -0.0882 O.2     
  32 C32           -2.4320     1.3841     0.3520 C.3     
  33 H33            5.4798    -0.6281    -0.7101 H       
  34 H34            4.2577    -0.2287    -1.9372 H       
  35 H35            3.5906     2.9630     0.0359 H       
  36 H36            1.9069     3.9160    -0.2124 H       
  37 H37            0.2273     3.8831    -0.1858 H       
  38 H38            2.7182    -2.6886     0.3037 H       
  39 H39            2.7078    -2.1842    -1.4033 H       
  40 H40           -4.4861    -0.1111    -0.3623 H       
  41 H41           -3.6115    -1.6396    -0.6216 H       
  42 H42           -3.3730    -1.9190     1.8307 H       
  43 H43           -4.2475    -0.3906     2.0899 H       
  44 H44           -6.2332    -1.3319     0.9413 H       
  45 H45           -5.3587    -2.8604     0.6820 H       
  46 H46           -5.7648    -2.3366     2.3340 H       
  47 H47            4.7865    -3.5283     1.3440 H       
  48 H48            4.7560    -2.3259    -2.7584 H       
  49 H49            6.9320    -3.4454    -3.0375 H       
  50 H50            8.2390    -4.6758     1.1666 H       
  51 H51            6.8308    -4.3937     2.2180 H       
  52 H52            8.4130    -6.3404     2.6240 H       
  53 H53            7.0671    -7.4772     2.9165 H       
  54 H54            9.4165    -7.7440     1.0489 H       
  55 H55            8.4746    -9.0215     1.8852 H       
  56 H56            8.0956    -8.5927    -0.7769 H       
  57 H57            6.6788    -8.9043     0.2813 H       
  58 H58            6.0934    -6.7770    -0.6913 H       
  59 H59            7.7914    -6.2096    -0.6749 H       
  60 H60           -2.3462     1.9018    -0.6033 H       
  61 H61           -3.3566     1.6833     0.8457 H       
  62 H62           -1.5825     1.6439     0.9836 H       
@<TRIPOS>BOND
   1    1    2 ar
   2    1    6 ar
   3    2    3 ar
   4    2   12 1
   5    3    4 ar
   6    4    5 ar
   7    4    7 1
   8    5    6 ar
   9    5   10 1
  10    6   11 1
  11    7    8 1
  12    7   13 1
  13    8    9 1
  14    8   33 1
  15    8   34 1
  16    9   10 am
  17    9   14 2
  18   10   35 1
  19   11   36 1
  20   11   37 1
  21   12   15 am
  22   12   31 2
  23   13   19 1
  24   13   38 1
  25   13   39 1
  26   15   16 1
  27   15   32 1
  28   16   17 1
  29   16   40 1
  30   16   41 1
  31   17   18 1
  32   17   42 1
  33   17   43 1
  34   18   44 1
  35   18   45 1
  36   18   46 1
  37   19   20 ar
  38   19   21 ar
  39   20   24 ar
  40   20   47 1
  41   21   22 ar
  42   21   48 1
  43   22   23 ar
  44   22   49 1
  45   23   24 ar
  46   24   25 1
  47   25   27 1
  48   25   50 1
  49   25   51 1
  50   26   27 1
  51   26   28 1
  52   26   52 1
  53   26   53 1
  54   27   30 1
  55   28   29 1
  56   28   54 1
  57   28   55 1
  58   29   30 1
  59   29   56 1
  60   29   57 1
  61   30   58 1
  62   30   59 1
  63   32   60 1
  64   32   61 1
  65   32   62 1

#	End of record

