#	Name: ASD03240349
#	Creating user name:	WinNT
#	Creation time:	15. 06. 2019 20:34

#	Modifying user name:	WinNT
#	Modification time:	15. 06. 2019 20:34

#	Program:	/corina/corina34_cracker 3.40 0067  02.08.2006

@<TRIPOS>MOLECULE
ASD03240349
 144  144    0    0    0
SMALL
NO_CHARGES


@<TRIPOS>ATOM
   1 P1            -0.0198     1.6058     0.0109 P.3     
   2 P2            -3.3118    -3.2980     3.8484 P.3     
   3 P3            -3.6517    -5.8212     0.3325 P.3     
   4 O4             0.0021    -0.0041     0.0020 O.3     
   5 O5            -2.2564    -3.3682     2.6347 O.3     
   6 O6            -3.6736    -4.2114     0.3414 O.3     
   7 O7             0.0575    -2.5418     1.2411 O.3     
   8 O8            -2.7234    -3.3480    -2.1747 O.3     
   9 O9            -1.4151    -0.8473    -2.2913 O.3     
  10 O10            1.4907     2.1630    -0.0006 O.3     
  11 O11           -0.7984     2.1391    -1.2935 O.3     
  12 O12           -4.7617    -3.7644     3.3265 O.3     
  13 O13           -2.8298    -4.2726     5.0358 O.3     
  14 O14           -2.8730    -6.3546     1.6368 O.3     
  15 O15           -5.1622    -6.3785     0.3439 O.3     
  16 O16           -0.7125     2.0831     1.2285 O.2     
  17 O17           -3.3924    -1.9088     4.3524 O.2     
  18 O18           -2.9590    -6.2985    -0.8852 O.2     
  19 O19            3.8250     3.3254    -1.2383 O.3     
  20 O20            3.5515     1.4917     0.9904 O.3     
  21 O21            3.5412     5.4010    -1.9415 O.2     
  22 O22            4.7865     0.9611     2.7444 O.2     
  23 C23           -2.3479    -2.5385     1.4747 C.3     
  24 C24           -2.4914    -3.4164     0.2299 C.3     
  25 C25           -1.1801    -0.7991     0.1135 C.3     
  26 C26           -1.0821    -1.6873     1.3554 C.3     
  27 C27           -2.5894    -2.5281    -1.0120 C.3     
  28 C28           -1.3236    -1.6769    -1.1314 C.3     
  29 C29            1.8087     3.5519     0.1083 C.3     
  30 C30            3.3273     3.7325     0.0636 C.3     
  31 C31            3.9755     2.8713     1.1495 C.3     
  32 C32            5.3374     6.9585    -9.0139 C.3     
  33 C33            5.8514     6.6048   -10.4110 C.3     
  34 C34            5.3661     5.7107    -8.1290 C.3     
  35 C35            5.8226     7.8526   -11.2959 C.3     
  36 C36            4.4852    -7.6536     4.7970 C.3     
  37 C37            4.8521     6.0643    -6.7320 C.3     
  38 C38            4.8871    -6.1810     4.9010 C.3     
  39 C39            5.1693    -8.4488     5.9108 C.3     
  40 C40            6.3366     7.4989   -12.6929 C.3     
  41 C41            4.8808     4.8166    -5.8470 C.3     
  42 C42            4.2030    -5.3857     3.7873 C.3     
  43 C43            4.7674    -9.9214     5.8067 C.3     
  44 C44            4.3668     5.1702    -4.4500 C.3     
  45 C45            3.8892     4.2708    -2.1890 C.2     
  46 C46            4.6049    -3.9131     3.8913 C.3     
  47 C47            4.3955     3.9225    -3.5650 C.3     
  48 C48            6.3079     8.7467   -13.5779 C.3     
  49 C49            5.4515   -10.7167     6.9205 C.3     
  50 C50            3.9208    -3.1179     2.7775 C.3     
  51 C51            6.8219     8.3931   -14.9749 C.3     
  52 C52            5.0496   -12.1893     6.8165 C.3     
  53 C53            4.3227    -1.6453     2.8815 C.3     
  54 C54            3.6386    -0.8500     1.7678 C.3     
  55 C55            6.7932     9.6408   -15.8599 C.3     
  56 C56            5.7337   -12.9846     7.9303 C.3     
  57 C57            4.0345     0.6005     1.8702 C.2     
  58 C58            7.3072     9.2872   -17.2569 C.3     
  59 C59            5.3318   -14.4572     7.8262 C.3     
  60 C60            7.2785    10.5349   -18.1419 C.3     
  61 C61            6.0159   -15.2524     8.9400 C.3     
  62 C62            7.7925    10.1813   -19.5389 C.3     
  63 C63            5.6140   -16.7250     8.8360 C.3     
  64 H64           -3.2172    -1.8868     1.5619 H       
  65 H65           -1.6221    -4.0682     0.1427 H       
  66 H66           -2.0494    -0.1473     0.2006 H       
  67 H67           -0.9799    -1.0619     2.2423 H       
  68 H68           -3.4587    -1.8764    -0.9249 H       
  69 H69           -0.4543    -2.3287    -1.2185 H       
  70 H70            0.8973    -2.0690     1.1616 H       
  71 H71           -2.7910    -2.8505    -3.0011 H       
  72 H72           -1.5082    -1.3379    -3.1194 H       
  73 H73           -0.3990     1.8638    -2.1300 H       
  74 H74           -4.7836    -4.6674     2.9811 H       
  75 H75           -3.4198    -4.2808     5.8019 H       
  76 H76           -3.2724    -6.0792     2.4734 H       
  77 H77           -5.2254    -7.3434     0.3394 H       
  78 H78            1.3537     4.0949    -0.7201 H       
  79 H79            1.4243     3.9398     1.0517 H       
  80 H80            3.5739     4.7802     0.2354 H       
  81 H81            3.6707     3.2341     2.1311 H       
  82 H82            5.0603     2.9305     1.0609 H       
  83 H83            5.9732     7.7285    -8.5770 H       
  84 H84            4.3149     7.3293    -9.0861 H       
  85 H85            6.8738     6.2340   -10.3388 H       
  86 H86            5.2156     5.8348   -10.8479 H       
  87 H87            4.7303     4.9407    -8.5659 H       
  88 H88            6.3885     5.3399    -8.0568 H       
  89 H89            4.8002     8.2234   -11.3681 H       
  90 H90            6.4584     8.6226   -10.8590 H       
  91 H91            3.4036    -7.7431     4.8983 H       
  92 H92            4.7931    -8.0467     3.8281 H       
  93 H93            5.4879     6.8344    -6.2950 H       
  94 H94            3.8296     6.4352    -6.8041 H       
  95 H95            4.5792    -5.7879     5.8699 H       
  96 H96            5.9687    -6.0915     4.7997 H       
  97 H97            6.2509    -8.3594     5.8095 H       
  98 H98            4.8614    -8.0558     6.8797 H       
  99 H99            7.3591     7.1281   -12.6208 H       
 100 H100           5.7009     6.7289   -13.1299 H       
 101 H101           4.2450     4.0465    -6.2839 H       
 102 H102           5.9032     4.4458    -5.7749 H       
 103 H103           4.5109    -5.7788     2.8184 H       
 104 H104           3.1214    -5.4752     3.8886 H       
 105 H105           3.6858   -10.0109     5.9080 H       
 106 H106           5.0753   -10.3145     4.8378 H       
 107 H107           5.0026     5.9403    -4.0131 H       
 108 H108           3.3444     5.5410    -4.5221 H       
 109 H109           5.2855     9.1175   -13.6500 H       
 110 H110           6.9437     9.5167   -13.1410 H       
 111 H111           4.2970    -3.5200     4.8602 H       
 112 H112           5.6865    -3.8236     3.7900 H       
 113 H113           3.7597     3.1524    -4.0019 H       
 114 H114           5.4180     3.5516    -3.4929 H       
 115 H115           6.5331   -10.6272     6.8192 H       
 116 H116           5.1436   -10.3236     7.8894 H       
 117 H117           4.2287    -3.5110     1.8086 H       
 118 H118           2.8392    -3.2074     2.8788 H       
 119 H119           7.8444     8.0222   -14.9028 H       
 120 H120           6.1861     7.6230   -15.4118 H       
 121 H121           3.9680   -12.2788     6.9178 H       
 122 H122           5.3575   -12.5824     5.8476 H       
 123 H123           4.0148    -1.2522     3.8504 H       
 124 H124           5.4043    -1.5558     2.7802 H       
 125 H125           5.7708    10.0117   -15.9320 H       
 126 H126           7.4290    10.4109   -15.4230 H       
 127 H127           3.9466    -1.2431     0.7989 H       
 128 H128           2.5570    -0.9395     1.8691 H       
 129 H129           6.8153   -12.8951     7.8290 H       
 130 H130           5.4258   -12.5915     8.8992 H       
 131 H131           8.3297     8.9164   -17.1848 H       
 132 H132           6.6714     8.5171   -17.6938 H       
 133 H133           4.2502   -14.5466     7.9275 H       
 134 H134           5.6397   -14.8502     6.8573 H       
 135 H135           6.2561    10.9058   -18.2140 H       
 136 H136           7.9143    11.3050   -17.7050 H       
 137 H137           7.0975   -15.1629     8.8387 H       
 138 H138           5.7079   -14.8593     9.9089 H       
 139 H139           7.7720    11.0702   -20.1694 H       
 140 H140           8.8149     9.8105   -19.4668 H       
 141 H141           7.1567     9.4113   -19.9758 H       
 142 H142           6.1013   -17.2916     9.6295 H       
 143 H143           4.5324   -16.8145     8.9373 H       
 144 H144           5.9219   -17.1181     7.8671 H       
@<TRIPOS>BOND
   1    1    4 1
   2    1   10 1
   3    1   11 1
   4    1   16 2
   5    2    5 1
   6    2   12 1
   7    2   13 1
   8    2   17 2
   9    3    6 1
  10    3   14 1
  11    3   15 1
  12    3   18 2
  13    4   25 1
  14    5   23 1
  15    6   24 1
  16    7   70 1
  17    7   26 1
  18    8   71 1
  19    8   27 1
  20    9   72 1
  21    9   28 1
  22   10   29 1
  23   11   73 1
  24   12   74 1
  25   13   75 1
  26   14   76 1
  27   15   77 1
  28   19   45 1
  29   19   30 1
  30   20   31 1
  31   20   57 1
  32   21   45 2
  33   22   57 2
  34   23   24 1
  35   23   64 1
  36   23   26 1
  37   24   27 1
  38   24   65 1
  39   25   26 1
  40   25   66 1
  41   25   28 1
  42   26   67 1
  43   27   28 1
  44   27   68 1
  45   28   69 1
  46   29   30 1
  47   29   78 1
  48   29   79 1
  49   30   31 1
  50   30   80 1
  51   31   81 1
  52   31   82 1
  53   32   33 1
  54   32   34 1
  55   32   83 1
  56   32   84 1
  57   33   35 1
  58   33   85 1
  59   33   86 1
  60   34   37 1
  61   34   87 1
  62   34   88 1
  63   35   40 1
  64   35   89 1
  65   35   90 1
  66   36   38 1
  67   36   39 1
  68   36   91 1
  69   36   92 1
  70   37   41 1
  71   37   93 1
  72   37   94 1
  73   38   42 1
  74   38   95 1
  75   38   96 1
  76   39   43 1
  77   39   97 1
  78   39   98 1
  79   40   48 1
  80   40   99 1
  81   40  100 1
  82   41   44 1
  83   41  101 1
  84   41  102 1
  85   42   46 1
  86   42  103 1
  87   42  104 1
  88   43   49 1
  89   43  105 1
  90   43  106 1
  91   44   47 1
  92   44  107 1
  93   44  108 1
  94   45   47 1
  95   46   50 1
  96   46  111 1
  97   46  112 1
  98   47  113 1
  99   47  114 1
 100   48   51 1
 101   48  109 1
 102   48  110 1
 103   49   52 1
 104   49  115 1
 105   49  116 1
 106   50   53 1
 107   50  117 1
 108   50  118 1
 109   51   55 1
 110   51  119 1
 111   51  120 1
 112   52   56 1
 113   52  121 1
 114   52  122 1
 115   53   54 1
 116   53  123 1
 117   53  124 1
 118   54   57 1
 119   54  127 1
 120   54  128 1
 121   55   58 1
 122   55  125 1
 123   55  126 1
 124   56   59 1
 125   56  129 1
 126   56  130 1
 127   58   60 1
 128   58  131 1
 129   58  132 1
 130   59   61 1
 131   59  133 1
 132   59  134 1
 133   60   62 1
 134   60  135 1
 135   60  136 1
 136   61   63 1
 137   61  137 1
 138   61  138 1
 139   62  139 1
 140   62  140 1
 141   62  141 1
 142   63  142 1
 143   63  143 1
 144   63  144 1

#	End of record

