#	Name: ASD03081336
#	Creating user name:	WinNT
#	Creation time:	15. 06. 2019 20:27

#	Modifying user name:	WinNT
#	Modification time:	15. 06. 2019 20:27

#	Program:	/corina/corina34_cracker 3.40 0067  02.08.2006

@<TRIPOS>MOLECULE
ASD03081336
  38   40    0    0    0
SMALL
NO_CHARGES


@<TRIPOS>ATOM
   1 O1            -0.0162     1.3444     0.0094 O.3     
   2 C2             0.0021    -0.0041     0.0020 C.2     
   3 N3             1.2606    -0.3805    -0.0120 N.2     
   4 N4             2.0177     0.6598    -0.0137 N.2     
   5 C5             1.2725     1.7416    -0.0007 C.2     
   6 C6             0.8547     4.2023     0.0156 C.ar    
   7 C7             1.7573     3.1373     0.0017 C.ar    
   8 C8             3.1296     3.4143    -0.0094 C.ar    
   9 C9             3.5313     4.7386    -0.0061 C.ar    
  10 C10            2.5739     5.7366     0.0079 C.ar    
  11 N11            1.2869     5.4461     0.0177 N.ar    
  12 C12           -1.1769    -0.8945     0.0085 C.ar    
  13 C13           -1.0088    -2.2805    -0.0006 C.ar    
  14 C14           -2.1139    -3.1061     0.0060 C.ar    
  15 C15           -3.3867    -2.5636     0.0216 C.ar    
  16 C16           -3.5603    -1.1909     0.0302 C.ar    
  17 C17           -2.4639    -0.3538     0.0295 C.ar    
  18 C18           -4.5892    -3.4719     0.0287 C.3     
  19 C19           -4.5491    -4.3614     1.2729 C.3     
  20 C20           -5.8654    -2.6282     0.0459 C.3     
  21 C21           -4.5739    -4.3481    -1.2254 C.3     
  22 H22           -0.2070     4.0044     0.0197 H       
  23 H23            3.8559     2.6151    -0.0199 H       
  24 H24            4.5816     4.9901    -0.0140 H       
  25 H25            2.8849     6.7709     0.0105 H       
  26 H26           -0.0159    -2.7052    -0.0130 H       
  27 H27           -1.9854    -4.1784    -0.0013 H       
  28 H28           -4.5565    -0.7740     0.0419 H       
  29 H29           -2.6008     0.7174     0.0411 H       
  30 H30           -4.5599    -3.7372     2.1664 H       
  31 H31           -5.4188    -5.0184     1.2781 H       
  32 H32           -3.6398    -4.9625     1.2607 H       
  33 H33           -5.8940    -1.9945    -0.8405 H       
  34 H34           -6.7352    -3.2851     0.0511 H       
  35 H35           -5.8763    -2.0039     0.9394 H       
  36 H36           -3.6647    -4.9492    -1.2377 H       
  37 H37           -5.4437    -5.0051    -1.2203 H       
  38 H38           -4.6025    -3.7144    -2.1118 H       
@<TRIPOS>BOND
   1    1    2 1
   2    1    5 1
   3    2    3 2
   4    2   12 1
   5    3    4 1
   6    4    5 2
   7    5    7 1
   8    6    7 ar
   9    6   11 ar
  10    6   22 1
  11    7    8 ar
  12    8    9 ar
  13    8   23 1
  14    9   10 ar
  15    9   24 1
  16   10   11 ar
  17   10   25 1
  18   12   13 ar
  19   12   17 ar
  20   13   14 ar
  21   13   26 1
  22   14   15 ar
  23   14   27 1
  24   15   16 ar
  25   15   18 1
  26   16   17 ar
  27   16   28 1
  28   17   29 1
  29   18   19 1
  30   18   21 1
  31   18   20 1
  32   19   30 1
  33   19   31 1
  34   19   32 1
  35   20   33 1
  36   20   34 1
  37   20   35 1
  38   21   36 1
  39   21   37 1
  40   21   38 1

#	End of record

