#	Name: ASD01150840
#	Creating user name:	WinNT
#	Creation time:	15. 06. 2019 19:05

#	Modifying user name:	WinNT
#	Modification time:	15. 06. 2019 19:05

#	Program:	/corina/corina34_cracker 3.40 0067  02.08.2006

@<TRIPOS>MOLECULE
ASD01150840
  65   68    0    0    0
SMALL
NO_CHARGES


@<TRIPOS>ATOM
   1 C1             0.6328     1.3791    -0.7658 C.2     
   2 N2             0.5119     0.0914    -0.5316 N.2     
   3 C3             1.6828    -0.5217    -0.7295 C.2     
   4 C4             2.6049     0.4427    -1.1144 C.2     
   5 N5             1.9110     1.6528    -1.1310 N.pl3   
   6 C6             3.9661     0.2399    -1.4252 C.2     
   7 O7             4.4434    -0.8788    -1.3689 O.2     
   8 O8             4.7396     1.2865    -1.7851 O.3     
   9 O9            -0.3623     2.2883    -0.6642 O.3     
  10 C10           -1.6469     1.8027    -0.2693 C.3     
  11 C11            2.4337     2.9108    -1.4622 C.ar    
  12 C12            2.5012     3.9104    -0.5010 C.ar    
  13 C13            3.0170     5.1488    -0.8290 C.ar    
  14 C14            3.4666     5.3939    -2.1157 C.ar    
  15 C15            3.4001     4.3982    -3.0757 C.ar    
  16 C16            2.8899     3.1568    -2.7502 C.ar    
  17 F17            3.9704     6.6062    -2.4348 F       
  18 N18            1.9330    -1.8812    -0.5767 N.am    
  19 C19            0.9412    -2.7102    -0.1954 C.2     
  20 O20           -0.1436    -2.2596     0.1061 O.2     
  21 C21            1.1802    -4.1973    -0.1438 C.3     
  22 C22           -0.1382    -4.9337     0.1714 C.3     
  23 C23           -0.6861    -5.3433    -1.2182 C.3     
  24 C24            0.5987    -5.7306    -1.9917 C.3     
  25 C25            1.6487    -4.7039    -1.5191 C.3     
  26 C26            2.2139    -4.5175     0.9050 C.ar    
  27 C27            2.6790    -5.8119     1.0441 C.ar    
  28 C28            3.6271    -6.1062     2.0058 C.ar    
  29 C29            4.1106    -5.1051     2.8293 C.ar    
  30 C30            3.6447    -3.8099     2.6896 C.ar    
  31 C31            2.7008    -3.5157     1.7237 C.ar    
  32 Cl32           5.3010    -5.4741     4.0379 Cl      
  33 C33            6.1086     1.0083    -2.0860 C.3     
  34 C34            6.1840     0.0211    -3.2524 C.3     
  35 C35            6.8205     2.3070    -2.4701 C.3     
  36 C36            6.7871     0.3989    -0.8575 C.3     
  37 H37           -2.3519     2.6329    -0.2270 H       
  38 H38           -1.9955     1.0666    -0.9937 H       
  39 H39           -1.5732     1.3381     0.7140 H       
  40 H40            2.1503     3.7197     0.5024 H       
  41 H41            3.0693     5.9268    -0.0817 H       
  42 H42            3.7513     4.5912    -4.0786 H       
  43 H43            2.8420     2.3792    -3.4981 H       
  44 H44            2.8214    -2.2327    -0.7446 H       
  45 H45            0.0544    -5.8167     0.7809 H       
  46 H46           -0.8370    -4.2661     0.6755 H       
  47 H47           -1.3576    -6.1976    -1.1322 H       
  48 H48           -1.1878    -4.5032    -1.6985 H       
  49 H49            0.9103    -6.7422    -1.7315 H       
  50 H50            0.4376    -5.6445    -3.0663 H       
  51 H51            1.7032    -3.8742    -2.2239 H       
  52 H52            2.6240    -5.1821    -1.4285 H       
  53 H53            2.3012    -6.5933     0.4015 H       
  54 H54            3.9901    -7.1175     2.1147 H       
  55 H55            4.0218    -3.0280     3.3321 H       
  56 H56            2.3403    -2.5038     1.6116 H       
  57 H57            5.7006     0.4552    -4.1276 H       
  58 H58            7.2282    -0.1911    -3.4819 H       
  59 H59            5.6768    -0.9041    -2.9788 H       
  60 H60            6.7668     3.0103    -1.6391 H       
  61 H61            7.8647     2.0947    -2.6996 H       
  62 H62            6.3371     2.7411    -3.3453 H       
  63 H63            6.2800    -0.5263    -0.5838 H       
  64 H64            7.8313     0.1867    -1.0870 H       
  65 H65            6.7334     1.1022    -0.0265 H       
@<TRIPOS>BOND
   1    1    2 2
   2    1    5 1
   3    1    9 1
   4    2    3 1
   5    3    4 2
   6    3   18 1
   7    4    5 1
   8    4    6 1
   9    5   11 1
  10    6    7 2
  11    6    8 1
  12    8   33 1
  13    9   10 1
  14   10   37 1
  15   10   38 1
  16   10   39 1
  17   11   12 ar
  18   11   16 ar
  19   12   13 ar
  20   12   40 1
  21   13   14 ar
  22   13   41 1
  23   14   15 ar
  24   14   17 1
  25   15   16 ar
  26   15   42 1
  27   16   43 1
  28   18   19 am
  29   18   44 1
  30   19   20 2
  31   19   21 1
  32   21   22 1
  33   21   25 1
  34   21   26 1
  35   22   23 1
  36   22   45 1
  37   22   46 1
  38   23   24 1
  39   23   47 1
  40   23   48 1
  41   24   25 1
  42   24   49 1
  43   24   50 1
  44   25   51 1
  45   25   52 1
  46   26   27 ar
  47   26   31 ar
  48   27   28 ar
  49   27   53 1
  50   28   29 ar
  51   28   54 1
  52   29   30 ar
  53   29   32 1
  54   30   31 ar
  55   30   55 1
  56   31   56 1
  57   33   34 1
  58   33   36 1
  59   33   35 1
  60   34   57 1
  61   34   58 1
  62   34   59 1
  63   35   60 1
  64   35   61 1
  65   35   62 1
  66   36   63 1
  67   36   64 1
  68   36   65 1

#	End of record

