#	Name: ASD01900819
#	Creating user name:	WinNT
#	Creation time:	15. 06. 2019 19:52

#	Modifying user name:	WinNT
#	Modification time:	15. 06. 2019 19:52

#	Program:	/corina/corina34_cracker 3.40 0067  02.08.2006

@<TRIPOS>MOLECULE
ASD01900819
  51   54    0    0    0
SMALL
NO_CHARGES


@<TRIPOS>ATOM
   1 N1             0.6520     1.6045     0.5513 N.am    
   2 C2             1.0414     0.2856     0.8124 C.ar    
   3 C3             2.7742    -1.3391     1.1467 C.ar    
   4 C4             2.3896    -0.0381     0.8891 C.ar    
   5 C5             0.0790    -0.6984     1.0005 C.ar    
   6 C6             0.4634    -1.9995     1.2586 C.ar    
   7 C7             1.8132    -2.3238     1.3300 C.ar    
   8 Cl8           -0.7388    -3.2295     1.4943 Cl      
   9 C9             1.3538     2.3540    -0.3219 C.2     
  10 C10            0.9099     3.7260    -0.6408 C.ar    
  11 O11            2.3523     1.9005    -0.8470 O.2     
  12 C12            1.5687     4.4571    -1.6387 C.ar    
  13 C13            1.1328     5.7514    -1.9244 C.ar    
  14 C14            0.0652     6.2595    -1.2078 C.ar    
  15 C15           -0.5380     5.4765    -0.2336 C.ar    
  16 N16           -0.1151     4.2580     0.0163 N.ar    
  17 N17            2.6373     3.9029    -2.3310 N.pl3   
  18 N18            2.2037    -3.6440     1.5910 N.am    
  19 C19            2.8443    -5.8792     1.2809 C.3     
  20 C20            2.4308    -4.5699     0.6422 C.2     
  21 C21            2.4240    -4.1930     2.9360 C.3     
  22 C22            3.2224    -5.4897     2.7206 C.3     
  23 O23            2.3198    -4.3835    -0.5512 O.2     
  24 C24            2.7769    -6.5650     3.7007 C.3     
  25 C25            4.7171    -5.2260     2.8290 C.3     
  26 C26            5.0633    -4.8084     4.2610 C.3     
  27 C27            4.6441    -5.9168     5.2288 C.3     
  28 C28            3.1337    -6.1401     5.1279 C.3     
  29 H29           -0.1252     1.9778     0.9957 H       
  30 H30            3.8229    -1.5904     1.2056 H       
  31 H31            3.1376     0.7279     0.7470 H       
  32 H32           -0.9696    -0.4458     0.9453 H       
  33 H33            1.6181     6.3425    -2.6870 H       
  34 H34           -0.2963     7.2581    -1.4043 H       
  35 H35           -1.3719     5.8741     0.3258 H       
  36 H36            2.7421     2.9394    -2.3708 H       
  37 H37            3.2789     4.4792    -2.7749 H       
  38 H38            2.0130    -6.5843     1.2793 H       
  39 H39            3.7054    -6.3016     0.7631 H       
  40 H40            2.9988    -3.4915     3.5406 H       
  41 H41            1.4698    -4.4122     3.4153 H       
  42 H42            1.6986    -6.7034     3.6221 H       
  43 H43            3.2806    -7.5024     3.4645 H       
  44 H44            5.2650    -6.1329     2.5730 H       
  45 H45            4.9956    -4.4279     2.1409 H       
  46 H46            6.1376    -4.6425     4.3416 H       
  47 H47            4.5335    -3.8889     4.5097 H       
  48 H48            5.1654    -6.8391     4.9725 H       
  49 H49            4.9009    -5.6258     6.2474 H       
  50 H50            2.6122    -5.2148     5.3728 H       
  51 H51            2.8343    -6.9221     5.8257 H       
@<TRIPOS>BOND
   1    1    2 1
   2    1    9 am
   3    1   29 1
   4    2    5 ar
   5    2    4 ar
   6    3    4 ar
   7    3    7 ar
   8    3   30 1
   9    4   31 1
  10    5    6 ar
  11    5   32 1
  12    6    7 ar
  13    6    8 1
  14    7   18 1
  15    9   10 1
  16    9   11 2
  17   10   12 ar
  18   10   16 ar
  19   12   13 ar
  20   12   17 1
  21   13   14 ar
  22   13   33 1
  23   14   15 ar
  24   14   34 1
  25   15   16 ar
  26   15   35 1
  27   17   36 1
  28   17   37 1
  29   18   21 1
  30   18   20 am
  31   19   20 1
  32   19   22 1
  33   19   38 1
  34   19   39 1
  35   20   23 2
  36   21   22 1
  37   21   40 1
  38   21   41 1
  39   22   25 1
  40   22   24 1
  41   24   28 1
  42   24   42 1
  43   24   43 1
  44   25   26 1
  45   25   44 1
  46   25   45 1
  47   26   27 1
  48   26   46 1
  49   26   47 1
  50   27   28 1
  51   27   48 1
  52   27   49 1
  53   28   50 1
  54   28   51 1

#	End of record

