#	Name: ASD01814824
#	Creating user name:	WinNT
#	Creation time:	15. 06. 2019 19:33

#	Modifying user name:	WinNT
#	Modification time:	15. 06. 2019 19:33

#	Program:	/corina/corina34_cracker 3.40 0067  02.08.2006

@<TRIPOS>MOLECULE
ASD01814824
  64   68    0    0    0
SMALL
NO_CHARGES


@<TRIPOS>ATOM
   1 O1            -0.0173     1.4248     0.0099 O.3     
   2 C2             0.0021    -0.0041     0.0020 C.3     
   3 H3             0.5121    -0.3565    -0.8945 H       
   4 C4             0.7396    -0.5125     1.2435 C.3     
   5 O5             0.7074    -1.9411     1.2633 O.3     
   6 C6            -0.6087    -2.4942     1.3259 C.3     
   7 C7            -1.4004    -2.0654     0.0877 C.3     
   8 C8            -1.4345    -0.5356     0.0160 C.3     
   9 H9            -1.9603    -0.1423     0.8861 H       
  10 N10           -2.1241    -0.1162    -1.2065 N.am    
  11 C11           -3.4675    -0.0083    -1.2192 C.2     
  12 O12           -4.1067    -0.2590    -0.2165 O.2     
  13 C13           -4.1646     0.4156    -2.4550 C.ar    
  14 C14           -5.5565     0.5296    -2.4554 C.ar    
  15 C15           -6.2088     0.9258    -3.6085 C.ar    
  16 C16           -7.7097     1.0582    -3.6391 C.3     
  17 C17           -8.3156    -0.2154    -4.1699 C.ar    
  18 C18           -8.5259    -0.3632    -5.5300 C.ar    
  19 C19           -9.0799    -1.5253    -6.0244 C.ar    
  20 C20           -9.4296    -2.5560    -5.1499 C.ar    
  21 C21          -10.0228    -3.8035    -5.6725 C.2     
  22 O22          -10.3262    -4.6990    -4.9084 O.2     
  23 N23          -10.2279    -3.9491    -6.9966 N.am    
  24 C24          -10.8163    -5.1865    -7.5150 C.3     
  25 C25          -10.9400    -5.0937    -9.0372 C.3     
  26 H26          -11.4932    -4.1947    -9.3090 H       
  27 C27          -11.6690    -6.3415    -9.5804 C.3     
  28 C28          -10.8849    -6.6382   -10.8878 C.3     
  29 C29           -9.4543    -6.2075   -10.4769 C.3     
  30 O30           -9.6363    -5.0597    -9.6295 O.3     
  31 C31           -9.2149    -2.4014    -3.7765 C.ar    
  32 F32           -9.5499    -3.3930    -2.9223 F       
  33 C33           -8.6533    -1.2324    -3.2965 C.ar    
  34 C34           -5.4469     1.1995    -4.7389 C.ar    
  35 O35           -5.7499     1.5954    -5.9894 O.3     
  36 C36           -4.6381     1.7250    -6.7332 C.2     
  37 C37           -3.5547     1.4204    -6.0052 C.2     
  38 C38           -4.0451     1.0637    -4.6677 C.ar    
  39 N39           -3.4582     0.6867    -3.5434 N.ar    
  40 H40            0.8606     1.8301     0.0037 H       
  41 H41            1.7748    -0.1726     1.2160 H       
  42 H42            0.2534    -0.1256     2.1390 H       
  43 H43           -0.5448    -3.5819     1.3577 H       
  44 H44           -1.1125    -2.1332     2.2225 H       
  45 H45           -0.9193    -2.4604    -0.8071 H       
  46 H46           -2.4182    -2.4497     0.1550 H       
  47 H47           -1.6139     0.0839    -2.0069 H       
  48 H48           -6.1199     0.3093    -1.5608 H       
  49 H49           -8.0787     1.2433    -2.6303 H       
  50 H50           -7.9879     1.8901    -4.2861 H       
  51 H51           -8.2557     0.4343    -6.2062 H       
  52 H52           -9.2432    -1.6377    -7.0860 H       
  53 H53           -9.9858    -3.2345    -7.6063 H       
  54 H54          -10.1777    -6.0301    -7.2531 H       
  55 H55          -11.8046    -5.3296    -7.0782 H       
  56 H56          -11.5867    -7.1738    -8.8814 H       
  57 H57          -12.7134    -6.1171    -9.7969 H       
  58 H58          -10.9200    -7.6993   -11.1347 H       
  59 H59          -11.2556    -6.0319   -11.7143 H       
  60 H60           -8.9608    -7.0095    -9.9280 H       
  61 H61           -8.8727    -5.9376   -11.3584 H       
  62 H62           -8.4823    -1.1120    -2.2369 H       
  63 H63           -4.6203     2.0303    -7.7690 H       
  64 H64           -2.5268     1.4339    -6.3363 H       
@<TRIPOS>BOND
   1    1    2 1
   2    1   40 1
   3    2    3 1
   4    2    8 1
   5    2    4 1
   6    4    5 1
   7    4   41 1
   8    4   42 1
   9    5    6 1
  10    6    7 1
  11    6   43 1
  12    6   44 1
  13    7    8 1
  14    7   45 1
  15    7   46 1
  16    8    9 1
  17    8   10 1
  18   10   11 am
  19   10   47 1
  20   11   12 2
  21   11   13 1
  22   13   39 ar
  23   13   14 ar
  24   14   15 ar
  25   14   48 1
  26   15   16 1
  27   15   34 ar
  28   16   17 1
  29   16   49 1
  30   16   50 1
  31   17   33 ar
  32   17   18 ar
  33   18   19 ar
  34   18   51 1
  35   19   20 ar
  36   19   52 1
  37   20   21 1
  38   20   31 ar
  39   21   22 2
  40   21   23 am
  41   23   24 1
  42   23   53 1
  43   24   25 1
  44   24   54 1
  45   24   55 1
  46   25   26 1
  47   25   30 1
  48   25   27 1
  49   27   28 1
  50   27   56 1
  51   27   57 1
  52   28   29 1
  53   28   58 1
  54   28   59 1
  55   29   30 1
  56   29   60 1
  57   29   61 1
  58   31   32 1
  59   31   33 ar
  60   33   62 1
  61   34   38 ar
  62   34   35 1
  63   35   36 1
  64   36   37 2
  65   36   63 1
  66   37   38 1
  67   37   64 1
  68   38   39 ar

#	End of record

