#	Name: ASD01918177
#	Creating user name:	WinNT
#	Creation time:	15. 06. 2019 20:10

#	Modifying user name:	WinNT
#	Modification time:	15. 06. 2019 20:10

#	Program:	/corina/corina34_cracker 3.40 0067  02.08.2006

@<TRIPOS>MOLECULE
ASD01918177
  48   51    0    0    0
SMALL
NO_CHARGES


@<TRIPOS>ATOM
   1 C1             0.5085     2.0622    -0.5526 C.ar    
   2 C2             0.7748     0.7508    -0.9695 C.ar    
   3 C3             2.0626     0.3638    -1.1954 C.ar    
   4 C4             3.1177     1.2567    -1.0163 C.ar    
   5 C5             2.8923     2.5367    -0.6119 C.ar    
   6 C6             1.5775     2.9712    -0.3704 C.ar    
   7 N7             1.3284     4.2247     0.0264 N.ar    
   8 C8             0.1063     4.6450     0.2557 C.ar    
   9 C9            -0.9956     3.8148     0.1000 C.ar    
  10 C10           -0.8148     2.5045    -0.3132 C.ar    
  11 S11           -2.6167     4.4261     0.4209 S.o2    
  12 O12           -3.2513     3.4636     1.2517 O.2     
  13 O13           -2.4658     5.7906     0.7876 O.2     
  14 C14           -3.4903     4.4158    -1.1092 C.ar    
  15 C15           -3.3249     5.4547    -2.0062 C.ar    
  16 C16           -4.3364     3.3662    -1.4145 C.ar    
  17 C17           -5.0221     3.3567    -2.6149 C.ar    
  18 C18           -4.8621     4.3980    -3.5110 C.ar    
  19 C19           -4.0104     5.4470    -3.2074 C.ar    
  20 N20           -1.8956     1.6526    -0.4833 N.3     
  21 C21           -3.2794     0.3878    -2.0600 C.3     
  22 C22           -3.2471    -0.8191    -1.1182 C.3     
  23 C23           -3.0909    -0.3275     0.3235 C.3     
  24 C24           -1.8154     0.5105     0.4362 C.3     
  25 C25           -1.9984     1.2050    -1.8782 C.3     
  26 C26           -4.5520    -1.6067    -1.2513 C.3     
  27 Cl27          -3.8025     6.7510    -4.3343 Cl      
  28 Cl28           2.3920    -1.2606    -1.7117 Cl      
  29 Cl29          -5.7229     4.3866    -5.0185 Cl      
  30 H30           -0.0354     0.0507    -1.1106 H       
  31 H31            4.1297     0.9278    -1.2009 H       
  32 H32            3.7209     3.2161    -0.4770 H       
  33 H33           -0.0464     5.6654     0.5749 H       
  34 H34           -2.6605     6.2724    -1.7688 H       
  35 H35           -4.4616     2.5530    -0.7150 H       
  36 H36           -5.6824     2.5360    -2.8531 H       
  37 H37           -3.3475     0.0426    -3.0916 H       
  38 H38           -4.1438     1.0091    -1.8257 H       
  39 H39           -2.4051    -1.4610    -1.3774 H       
  40 H40           -3.9523     0.2826     0.5953 H       
  41 H41           -3.0243    -1.1837     0.9948 H       
  42 H42           -0.9530    -0.1040     0.1777 H       
  43 H43           -1.7087     0.8740     1.4583 H       
  44 H44           -2.0247     2.0729    -2.5371 H       
  45 H45           -1.1352     0.5872    -2.1259 H       
  46 H46           -4.6651    -1.9514    -2.2792 H       
  47 H47           -4.5281    -2.4655    -0.5806 H       
  48 H48           -5.3926    -0.9642    -0.9890 H       
@<TRIPOS>BOND
   1    1    2 ar
   2    1    6 ar
   3    1   10 ar
   4    2    3 ar
   5    2   30 1
   6    3    4 ar
   7    3   28 1
   8    4    5 ar
   9    4   31 1
  10    5    6 ar
  11    5   32 1
  12    6    7 ar
  13    7    8 ar
  14    8    9 ar
  15    8   33 1
  16    9   10 ar
  17    9   11 1
  18   10   20 1
  19   11   12 2
  20   11   13 2
  21   11   14 1
  22   14   16 ar
  23   14   15 ar
  24   15   19 ar
  25   15   34 1
  26   16   17 ar
  27   16   35 1
  28   17   18 ar
  29   17   36 1
  30   18   19 ar
  31   18   29 1
  32   19   27 1
  33   20   25 1
  34   20   24 1
  35   21   22 1
  36   21   25 1
  37   21   37 1
  38   21   38 1
  39   22   23 1
  40   22   26 1
  41   22   39 1
  42   23   24 1
  43   23   40 1
  44   23   41 1
  45   24   42 1
  46   24   43 1
  47   25   44 1
  48   25   45 1
  49   26   46 1
  50   26   47 1
  51   26   48 1

#	End of record

