#	Name: ASD00069496
#	Creating user name:	WinNT
#	Creation time:	15. 06. 2019 18:29

#	Modifying user name:	WinNT
#	Modification time:	15. 06. 2019 18:29

#	Program:	/corina/corina34_cracker 3.40 0067  02.08.2006

@<TRIPOS>MOLECULE
ASD00069496
  15   15    0    0    0
SMALL
NO_CHARGES


@<TRIPOS>ATOM
   1 O1            -0.0172     1.4158     0.0098 O.3     
   2 B2             0.0021    -0.0041     0.0020 Du      
   3 O3            -1.2179    -0.7307     0.0098 O.3     
   4 C4             1.3722    -0.7705    -0.0152 C.ar    
   5 C5             2.5826    -0.0751    -0.0230 C.ar    
   6 C6             3.7660    -0.7887    -0.0382 C.ar    
   7 N7             3.7609    -2.1067    -0.0453 N.ar    
   8 C8             2.6406    -2.8007    -0.0383 C.ar    
   9 C9             1.4131    -2.1658    -0.0173 C.ar    
  10 H10            0.8608     1.8211     0.0036 H       
  11 H11           -2.0078    -0.1731     0.0203 H       
  12 H12            2.5940     1.0049    -0.0176 H       
  13 H13            4.7074    -0.2595    -0.0447 H       
  14 H14            2.6822    -3.8799    -0.0445 H       
  15 H15            0.4989    -2.7408    -0.0113 H       
@<TRIPOS>BOND
   1    1    2 1
   2    1   10 1
   3    2    3 1
   4    2    4 1
   5    3   11 1
   6    4    5 ar
   7    4    9 ar
   8    5    6 ar
   9    5   12 1
  10    6    7 ar
  11    6   13 1
  12    7    8 ar
  13    8    9 ar
  14    8   14 1
  15    9   15 1

#	End of record

