#	Name: ASD01411175
#	Creating user name:	WinNT
#	Creation time:	15. 06. 2019 19:19

#	Modifying user name:	WinNT
#	Modification time:	15. 06. 2019 19:19

#	Program:	/corina/corina34_cracker 3.40 0067  02.08.2006

@<TRIPOS>MOLECULE
ASD01411175
  73   75    0    0    0
SMALL
NO_CHARGES


@<TRIPOS>ATOM
   1 C1             2.4052     4.8262    -2.1429 C.ar    
   2 C2             3.4160     4.8581    -3.0935 C.ar    
   3 C3             4.4912     4.0010    -2.9654 C.ar    
   4 N4             4.5666     3.1570    -1.9543 N.ar    
   5 C5             3.6233     3.0969    -1.0285 C.ar    
   6 C6             2.5135     3.9295    -1.0940 C.ar    
   7 C7             4.5554    -0.0160    -0.1760 C.ar    
   8 C8             4.7880     1.3462    -0.0286 C.ar    
   9 O9             3.7412     2.2137    -0.0055 O.3     
  10 C10            5.6106    -0.9053    -0.2003 C.ar    
  11 C11            6.9137    -0.4439    -0.0769 C.ar    
  12 C12            7.1554     0.9303     0.0718 C.ar    
  13 C13            6.0805     1.8223     0.0951 C.ar    
  14 N14            7.9791    -1.3428    -0.1005 N.am    
  15 C15            8.4569    -1.8789    -1.3774 C.3     
  16 C16            8.5694    -1.7186     1.0513 C.2     
  17 C17            8.0096    -1.2545     2.3713 C.3     
  18 O18            9.5512    -2.4301     1.0255 O.2     
  19 C19            8.9734    -1.6364     3.4965 C.3     
  20 C20            6.6538    -1.9212     2.6128 C.3     
  21 C21            6.8302    -3.4407     2.6395 C.3     
  22 C22            7.7939    -3.8226     3.7648 C.3     
  23 C23            9.1497    -3.1560     3.5232 C.3     
  24 C24            7.9703    -5.3422     3.7915 C.3     
  25 C25            9.5490    -0.9654    -1.9375 C.3     
  26 C26           10.0480    -1.5253    -3.2710 C.3     
  27 O27           11.0680    -0.6720    -3.7941 O.3     
  28 C28           11.6050    -1.1073    -5.0448 C.3     
  29 C29           12.6824    -0.1242    -5.5071 C.3     
  30 C30           13.2574    -0.5902    -6.8461 C.3     
  31 C31           14.3347     0.3929    -7.3084 C.3     
  32 C32            8.5357     1.4299     0.2040 C.2     
  33 O33            9.4682     0.6510     0.1845 O.2     
  34 O34            8.7637     2.7504     0.3466 O.3     
  35 C35            1.4415     3.8576    -0.0372 C.3     
  36 F36            0.4388     4.7894    -0.3260 F       
  37 F37            0.8914     2.5714    -0.0178 F       
  38 F38            1.9993     4.1451     1.2131 F       
  39 H39            1.5558     5.4890    -2.2175 H       
  40 H40            3.3621     5.5457    -3.9246 H       
  41 H41            5.2802     4.0216    -3.7026 H       
  42 H42            3.5431    -0.3811    -0.2677 H       
  43 H43            5.4218    -1.9624    -0.3152 H       
  44 H44            6.2585     2.8814     0.2092 H       
  45 H45            8.8634    -2.8784    -1.2225 H       
  46 H46            7.6279    -1.9292    -2.0834 H       
  47 H47            7.8840    -0.1720     2.3523 H       
  48 H48            9.9393    -1.1615     3.3245 H       
  49 H49            8.5684    -1.3008     4.4513 H       
  50 H50            6.2489    -1.5855     3.5676 H       
  51 H51            5.9672    -1.6491     1.8112 H       
  52 H52            5.8643    -3.9156     2.8116 H       
  53 H53            7.2351    -3.7763     1.6848 H       
  54 H54            7.3890    -3.4870     4.7195 H       
  55 H55            9.5547    -3.4916     2.5685 H       
  56 H56            9.8363    -3.4280     4.3249 H       
  57 H57            8.3752    -5.6778     2.8368 H       
  58 H58            8.6569    -5.6142     4.5932 H       
  59 H59            7.0044    -5.8171     3.9636 H       
  60 H60            9.1425     0.0341    -2.0924 H       
  61 H61           10.3780    -0.9150    -1.2315 H       
  62 H62           10.4545    -2.5247    -3.1161 H       
  63 H63            9.2190    -1.5756    -3.9770 H       
  64 H64           12.0438    -2.0981    -4.9267 H       
  65 H65           10.8083    -1.1489    -5.7875 H       
  66 H66           12.2436     0.8666    -5.6252 H       
  67 H67           13.4790    -0.0825    -4.7643 H       
  68 H68           13.6962    -1.5810    -6.7280 H       
  69 H69           12.4607    -0.6318    -7.5889 H       
  70 H70           14.7444     0.0609    -8.2624 H       
  71 H71           13.8959     1.3837    -7.4265 H       
  72 H72           15.1314     0.4345    -6.5656 H       
  73 H73            9.6855     3.0303     0.4297 H       
@<TRIPOS>BOND
   1    1    2 ar
   2    1    6 ar
   3    1   39 1
   4    2    3 ar
   5    2   40 1
   6    3    4 ar
   7    3   41 1
   8    4    5 ar
   9    5    6 ar
  10    5    9 1
  11    6   35 1
  12    7    8 ar
  13    7   10 ar
  14    7   42 1
  15    8    9 1
  16    8   13 ar
  17   10   11 ar
  18   10   43 1
  19   11   12 ar
  20   11   14 1
  21   12   13 ar
  22   12   32 1
  23   13   44 1
  24   14   15 1
  25   14   16 am
  26   15   25 1
  27   15   45 1
  28   15   46 1
  29   16   18 2
  30   16   17 1
  31   17   19 1
  32   17   20 1
  33   17   47 1
  34   19   23 1
  35   19   48 1
  36   19   49 1
  37   20   21 1
  38   20   50 1
  39   20   51 1
  40   21   22 1
  41   21   52 1
  42   21   53 1
  43   22   23 1
  44   22   24 1
  45   22   54 1
  46   23   55 1
  47   23   56 1
  48   24   57 1
  49   24   58 1
  50   24   59 1
  51   25   26 1
  52   25   60 1
  53   25   61 1
  54   26   27 1
  55   26   62 1
  56   26   63 1
  57   27   28 1
  58   28   29 1
  59   28   64 1
  60   28   65 1
  61   29   30 1
  62   29   66 1
  63   29   67 1
  64   30   31 1
  65   30   68 1
  66   30   69 1
  67   31   70 1
  68   31   71 1
  69   31   72 1
  70   32   33 2
  71   32   34 1
  72   34   73 1
  73   35   36 1
  74   35   37 1
  75   35   38 1

#	End of record

