#	Name: ASD04162002
#	Creating user name:	WinNT
#	Creation time:	15. 06. 2019 20:48

#	Modifying user name:	WinNT
#	Modification time:	15. 06. 2019 20:48

#	Program:	/corina/corina34_cracker 3.40 0067  02.08.2006

@<TRIPOS>MOLECULE
ASD04162002
  44   46    0    0    0
SMALL
NO_CHARGES


@<TRIPOS>ATOM
   1 C1            -0.0162     1.3442     0.0094 C.2     
   2 C2             0.0021    -0.0041     0.0020 C.2     
   3 O3             1.1576    -0.6780    -0.0122 O.3     
   4 C4             2.3443    -0.0553    -0.0202 C.2     
   5 C5             2.4191     1.2937    -0.0136 C.2     
   6 C6             1.2136     2.0485     0.0015 C.2     
   7 O7             1.2377     3.2700     0.0074 O.2     
   8 C8            -1.2995    -0.7636     0.0104 C.3     
   9 O9            -2.3898     0.1600     0.0257 O.3     
  10 O10            3.6274     1.9197    -0.0213 O.3     
  11 C11            3.6118    -0.8703    -0.0361 C.3     
  12 C12            3.7215    -1.6536     1.2467 C.ar    
  13 N13            3.5834    -1.7951    -1.1720 N.pl3   
  14 C14            4.0005    -1.3673    -2.4271 C.ar    
  15 N15            3.9725    -2.2079    -3.4496 N.ar    
  16 C16            4.3596    -1.8420    -4.6570 C.ar    
  17 C17            4.8112    -0.5602    -4.8975 C.ar    
  18 C18            4.8563     0.3526    -3.8517 C.ar    
  19 C19            4.4385    -0.0579    -2.5989 C.ar    
  20 C20            4.5354    -1.1959     2.2669 C.ar    
  21 C21            4.6385    -1.9109     3.4436 C.ar    
  22 C22            3.9231    -3.0918     3.6021 C.ar    
  23 C23            3.1062    -3.5486     2.5748 C.ar    
  24 C24            3.0038    -2.8254     1.4030 C.ar    
  25 S25            4.0519    -4.0078     5.1018 S.3     
  26 C26            2.9555    -5.4233     4.8107 C.3     
  27 H27           -0.9542     1.8795     0.0168 H       
  28 H28           -1.3629    -1.3857    -0.8824 H       
  29 H29           -1.3459    -1.3953     0.8975 H       
  30 H30           -3.2609    -0.2599     0.0318 H       
  31 H31            3.5703     2.8850    -0.0156 H       
  32 H32            4.4702    -0.2053    -0.1304 H       
  33 H33            3.2736    -2.7059    -1.0483 H       
  34 H34            4.3229    -2.5550    -5.4674 H       
  35 H35            5.1267    -0.2699    -5.8888 H       
  36 H36            5.2060     1.3615    -4.0140 H       
  37 H37            4.4599     0.6262    -1.7634 H       
  38 H38            5.0914    -0.2783     2.1428 H       
  39 H39            5.2745    -1.5530     4.2398 H       
  40 H40            2.5488    -4.4659     2.6945 H       
  41 H41            2.3692    -3.1798     0.6042 H       
  42 H42            2.9563    -6.0700     5.6881 H       
  43 H43            1.9428    -5.0661     4.6237 H       
  44 H44            3.3084    -5.9844     3.9454 H       
@<TRIPOS>BOND
   1    1    2 2
   2    1    6 1
   3    1   27 1
   4    2    3 1
   5    2    8 1
   6    3    4 1
   7    4    5 2
   8    4   11 1
   9    5    6 1
  10    5   10 1
  11    6    7 2
  12    8    9 1
  13    8   28 1
  14    8   29 1
  15    9   30 1
  16   10   31 1
  17   11   12 1
  18   11   13 1
  19   11   32 1
  20   12   20 ar
  21   12   24 ar
  22   13   14 1
  23   13   33 1
  24   14   15 ar
  25   14   19 ar
  26   15   16 ar
  27   16   17 ar
  28   16   34 1
  29   17   18 ar
  30   17   35 1
  31   18   19 ar
  32   18   36 1
  33   19   37 1
  34   20   21 ar
  35   20   38 1
  36   21   22 ar
  37   21   39 1
  38   22   23 ar
  39   22   25 1
  40   23   24 ar
  41   23   40 1
  42   24   41 1
  43   25   26 1
  44   26   42 1
  45   26   43 1
  46   26   44 1

#	End of record

