#	Name: ASD00311494
#	Creating user name:	WinNT
#	Creation time:	15. 06. 2019 18:34

#	Modifying user name:	WinNT
#	Modification time:	15. 06. 2019 18:34

#	Program:	/corina/corina34_cracker 3.40 0067  02.08.2006

@<TRIPOS>MOLECULE
ASD00311494
  51   55    0    0    0
SMALL
NO_CHARGES


@<TRIPOS>ATOM
   1 C1            -0.0167     1.3777     0.0096 C.2     
   2 C2             0.0021    -0.0041     0.0020 C.2     
   3 C3             1.2588    -0.6767    -0.0140 C.2     
   4 C4             2.4315     0.0673    -0.0217 C.2     
   5 C5             2.3574     1.4752    -0.0134 C.2     
   6 N6             1.1648     2.0903     0.0022 N.am    
   7 C7            -1.3432    -0.5752     0.0123 C.2     
   8 C8            -2.3227     0.3261     0.0268 C.2     
   9 S9            -1.6793     1.9562     0.0358 S.3     
  10 O10            3.3822     2.1373    -0.0196 O.2     
  11 C11            3.7476    -0.6120    -0.0379 C.ar    
  12 C12            4.5930    -0.4746    -1.1387 C.ar    
  13 C13            5.8178    -1.1099    -1.1479 C.ar    
  14 C14            6.2078    -1.8823    -0.0684 C.ar    
  15 C15            5.3736    -2.0224     1.0264 C.ar    
  16 C16            4.1490    -1.3870     1.0501 C.ar    
  17 C17           -2.0646    -4.7708    -0.0100 C.ar    
  18 C18           -2.7051    -3.9567     0.9314 C.ar    
  19 C19           -2.4702    -2.5945     0.9376 C.ar    
  20 C20           -1.5956    -2.0348     0.0065 C.ar    
  21 C21           -0.9585    -2.8489    -0.9310 C.ar    
  22 C22           -1.1916    -4.2066    -0.9390 C.ar    
  23 C23           -2.3096    -6.2324    -0.0153 C.ar    
  24 C24           -3.5821    -6.7306    -0.3149 C.ar    
  25 C25           -3.8019    -8.0980    -0.3179 C.ar    
  26 C26           -2.7667    -8.9667    -0.0258 C.ar    
  27 C27           -1.5073    -8.4773     0.2713 C.ar    
  28 C28           -1.2724    -7.1170     0.2724 C.ar    
  29 O29           -3.5566    -4.5044     1.8374 O.3     
  30 C30           -4.1746    -3.6135     2.7682 C.3     
  31 O31           -4.5988    -5.8760    -0.6014 O.3     
  32 O32            1.3087    -2.0292    -0.0214 O.3     
  33 H33            1.1326     3.0597     0.0077 H       
  34 H34           -3.3753     0.0846     0.0354 H       
  35 H35            4.2894     0.1275    -1.9823 H       
  36 H36            6.4733    -1.0043    -1.9997 H       
  37 H37            7.1671    -2.3782    -0.0805 H       
  38 H38            5.6834    -2.6270     1.8660 H       
  39 H39            3.5008    -1.4932     1.9073 H       
  40 H40           -2.9635    -1.9643     1.6628 H       
  41 H41           -0.2818    -2.4138    -1.6515 H       
  42 H42           -0.6973    -4.8346    -1.6655 H       
  43 H43           -4.7830    -8.4861    -0.5484 H       
  44 H44           -2.9421   -10.0323    -0.0292 H       
  45 H45           -0.7038    -9.1622     0.4989 H       
  46 H46           -0.2869    -6.7387     0.5005 H       
  47 H47           -4.8282    -4.1784     3.4328 H       
  48 H48           -3.4060    -3.1109     3.3553 H       
  49 H49           -4.7611    -2.8715     2.2263 H       
  50 H50           -4.6788    -5.6608    -1.5407 H       
  51 H51            2.2060    -2.3896    -0.0322 H       
@<TRIPOS>BOND
   1    1    2 2
   2    1    6 1
   3    1    9 1
   4    2    3 1
   5    2    7 1
   6    3    4 2
   7    3   32 1
   8    4    5 1
   9    4   11 1
  10    5    6 am
  11    5   10 2
  12    6   33 1
  13    7    8 2
  14    7   20 1
  15    8    9 1
  16    8   34 1
  17   11   12 ar
  18   11   16 ar
  19   12   13 ar
  20   12   35 1
  21   13   14 ar
  22   13   36 1
  23   14   15 ar
  24   14   37 1
  25   15   16 ar
  26   15   38 1
  27   16   39 1
  28   17   18 ar
  29   17   22 ar
  30   17   23 1
  31   18   19 ar
  32   18   29 1
  33   19   20 ar
  34   19   40 1
  35   20   21 ar
  36   21   22 ar
  37   21   41 1
  38   22   42 1
  39   23   24 ar
  40   23   28 ar
  41   24   25 ar
  42   24   31 1
  43   25   26 ar
  44   25   43 1
  45   26   27 ar
  46   26   44 1
  47   27   28 ar
  48   27   45 1
  49   28   46 1
  50   29   30 1
  51   30   47 1
  52   30   48 1
  53   30   49 1
  54   31   50 1
  55   32   51 1

#	End of record

