#	Name: ASD05390009
#	Creating user name:	WinNT
#	Creation time:	15. 06. 2019 20:59

#	Modifying user name:	WinNT
#	Modification time:	15. 06. 2019 20:59

#	Program:	/corina/corina34_cracker 3.40 0067  02.08.2006

@<TRIPOS>MOLECULE
ASD05390009
  20   20    0    0    0
SMALL
NO_CHARGES


@<TRIPOS>ATOM
   1 O1            -0.0173     1.4248     0.0099 O.3     
   2 C2             0.7390    -2.0273    -1.2652 C.3     
   3 C3             0.7182    -0.4975    -1.2568 C.3     
   4 C4            -0.6964    -2.5569    -1.2543 C.3     
   5 O5            -0.6770    -3.9858    -1.2622 O.3     
   6 C6            -1.4126    -2.0635     0.0045 C.3     
   7 C7            -1.4333    -0.5336     0.0129 C.3     
   8 C8             0.0021    -0.0041     0.0020 C.3     
   9 H9             0.8606     1.8301     0.0037 H       
  10 H10            1.2492    -2.3788    -2.1620 H       
  11 H11            1.2661    -2.3884    -0.3821 H       
  12 H12            1.7408    -0.1202    -1.2645 H       
  13 H13            0.1910    -0.1364    -2.1398 H       
  14 H14           -1.2236    -2.1958    -2.1374 H       
  15 H15           -1.5550    -4.3910    -1.2560 H       
  16 H16           -2.4352    -2.4408     0.0122 H       
  17 H17           -0.8854    -2.4246     0.8875 H       
  18 H18           -1.9605    -0.1726    -0.8702 H       
  19 H19           -1.9435    -0.1821     0.9097 H       
  20 H20            0.5293    -0.3651     0.8851 H       
@<TRIPOS>BOND
   1    1    8 1
   2    1    9 1
   3    2   10 1
   4    2   11 1
   5    2    3 1
   6    2    4 1
   7    3   12 1
   8    3   13 1
   9    3    8 1
  10    4    5 1
  11    4   14 1
  12    4    6 1
  13    5   15 1
  14    6   16 1
  15    6   17 1
  16    6    7 1
  17    7    8 1
  18    7   18 1
  19    7   19 1
  20    8   20 1

#	End of record

