#	Name: ASD03430067
#	Creating user name:	WinNT
#	Creation time:	15. 06. 2019 20:40

#	Modifying user name:	WinNT
#	Modification time:	15. 06. 2019 20:40

#	Program:	/corina/corina34_cracker 3.40 0067  02.08.2006

@<TRIPOS>MOLECULE
ASD03430067
  45   50    0    0    0
SMALL
NO_CHARGES


@<TRIPOS>ATOM
   1 C1             0.4083     1.1544    -0.5408 C.ar    
   2 C2             0.3828    -0.2261    -0.4160 C.ar    
   3 C3             1.5553    -0.9283    -0.2324 C.ar    
   4 C4             2.7754    -0.2630    -0.1595 C.ar    
   5 C5             2.7978     1.1220    -0.2895 C.ar    
   6 C6             1.6222     1.8289    -0.4780 C.ar    
   7 O7             3.8020    -1.1354     0.0528 O.3     
   8 C8             1.8576    -2.3957    -0.0885 C.3     
   9 C9             3.3763    -2.4654    -0.3002 C.3     
  10 C10            0.5703    -3.9750     0.9912 C.ar    
  11 C11            1.4539    -2.9330     1.2521 C.ar    
  12 C12            1.1162    -3.2318    -1.0918 C.2     
  13 N13            0.3940    -4.1253    -0.3868 N.am    
  14 O14            1.1592    -3.1244    -2.2991 O.2     
  15 C15            1.7807    -2.5970     2.5577 C.ar    
  16 C16            1.2206    -3.3090     3.6179 C.ar    
  17 C17            0.3443    -4.3440     3.3599 C.ar    
  18 C18            0.0190    -4.6778     2.0606 C.ar    
  19 C19           -0.4746    -5.1364    -0.9946 C.3     
  20 O20           -0.7580     1.8314    -0.7290 O.3     
  21 C21           -0.7306     3.2415    -0.4822 C.3     
  22 C22            0.5189     3.8226    -1.1579 C.3     
  23 O23            1.6706     3.1845    -0.5970 O.3     
  24 C24            2.7247    -1.4826     2.8255 C.2     
  25 C25            3.9403    -1.5729     3.5312 C.2     
  26 N26            4.4846    -0.3853     3.5558 N.2     
  27 N27            3.6453     0.5030     2.8725 N.pl3   
  28 C28            2.5752    -0.1862     2.4276 C.2     
  29 H29           -0.5586    -0.7534    -0.4625 H       
  30 H30            3.7390     1.6496    -0.2429 H       
  31 H31            3.6123    -2.6836    -1.3418 H       
  32 H32            3.8261    -3.2045     0.3627 H       
  33 H33            1.4716    -3.0520     4.6364 H       
  34 H34           -0.0895    -4.8965     4.1803 H       
  35 H35           -0.6680    -5.4894     1.8715 H       
  36 H36           -1.4777    -4.7278    -1.1166 H       
  37 H37           -0.0765    -5.4191    -1.9692 H       
  38 H38           -0.5159    -6.0147    -0.3504 H       
  39 H39           -1.6240     3.7054    -0.9001 H       
  40 H40           -0.6876     3.4261     0.5912 H       
  41 H41            0.4796     3.6311    -2.2302 H       
  42 H42            0.5686     4.8964    -0.9773 H       
  43 H43            4.3507    -2.4679     3.9751 H       
  44 H44            3.8072     1.4501     2.7394 H       
  45 H45            1.7468     0.2164     1.8638 H       
@<TRIPOS>BOND
   1    1    2 ar
   2    1    6 ar
   3    1   20 1
   4    2    3 ar
   5    2   29 1
   6    3    4 ar
   7    3    8 1
   8    4    5 ar
   9    4    7 1
  10    5    6 ar
  11    5   30 1
  12    6   23 1
  13    7    9 1
  14    8    9 1
  15    8   11 1
  16    8   12 1
  17    9   31 1
  18    9   32 1
  19   10   11 ar
  20   10   13 1
  21   10   18 ar
  22   11   15 ar
  23   12   13 am
  24   12   14 2
  25   13   19 1
  26   15   16 ar
  27   15   24 1
  28   16   17 ar
  29   16   33 1
  30   17   18 ar
  31   17   34 1
  32   18   35 1
  33   19   36 1
  34   19   37 1
  35   19   38 1
  36   20   21 1
  37   21   22 1
  38   21   39 1
  39   21   40 1
  40   22   23 1
  41   22   41 1
  42   22   42 1
  43   24   25 1
  44   24   28 2
  45   25   26 2
  46   25   43 1
  47   26   27 1
  48   27   28 1
  49   27   44 1
  50   28   45 1

#	End of record

