#	Name: ASD03091154
#	Creating user name:	WinNT
#	Creation time:	15. 06. 2019 20:30

#	Modifying user name:	WinNT
#	Modification time:	15. 06. 2019 20:30

#	Program:	/corina/corina34_cracker 3.40 0067  02.08.2006

@<TRIPOS>MOLECULE
ASD03091154
  54   56    0    0    0
SMALL
NO_CHARGES


@<TRIPOS>ATOM
   1 C1            -0.0416     1.4295    -0.5241 C.2     
   2 C2            -0.0092    -0.0272    -0.2553 C.ar    
   3 C3             1.2074    -0.7056    -0.1180 C.ar    
   4 C4             1.1964    -2.0626     0.1320 C.ar    
   5 N5             0.0605    -2.7238     0.2424 N.ar    
   6 C6            -1.1132    -2.1246     0.1202 C.ar    
   7 C7            -1.1909    -0.7581    -0.1265 C.ar    
   8 O8             0.5269     1.8802    -1.4989 O.2     
   9 N9            -0.7062     2.2540     0.3095 N.am    
  10 N10            2.4898     0.0235    -0.2399 N.pl3   
  11 O11            3.5411    -0.5914    -0.2522 O.2     
  12 O12            2.4937     1.2383    -0.3279 O.2     
  13 C13           -0.7382     3.6943     0.0437 C.3     
  14 C14           -1.5526     4.3959     1.1325 C.3     
  15 C15           -1.5860     5.9002     0.8549 C.3     
  16 C16           -2.9804     3.8461     1.1355 C.3     
  17 C17           -0.9058     4.1432     2.4958 C.3     
  18 O18           -2.3466     6.5555     1.8718 O.3     
  19 N19           -4.3698    -4.8107    -0.5518 N.3     
  20 C20           -4.4957    -3.3610    -0.7657 C.3     
  21 C21           -3.1267    -2.7237    -0.9461 C.3     
  22 N22           -2.2812    -2.8684     0.2450 N.3     
  23 C23           -1.9795    -4.2844     0.4972 C.3     
  24 C24           -2.9760    -4.8716     1.4854 C.3     
  25 C25           -4.3487    -5.1064     0.8879 C.3     
  26 C26           -3.3101    -5.4758    -1.2792 C.3     
  27 C27           -1.9307    -5.0262    -0.8260 C.3     
  28 H28            2.1320    -2.5914     0.2385 H       
  29 H29           -2.1503    -0.2712    -0.2209 H       
  30 H30           -1.1634     1.8938     1.0854 H       
  31 H31            0.2790     4.0861     0.0415 H       
  32 H32           -1.1990     3.8744    -0.9276 H       
  33 H33           -0.5688     6.2919     0.8527 H       
  34 H34           -2.0468     6.0803    -0.1164 H       
  35 H35           -2.9566     2.7744     1.3333 H       
  36 H36           -3.5605     4.3459     1.9112 H       
  37 H37           -3.4411     4.0262     0.1643 H       
  38 H38            0.1114     4.5349     2.4936 H       
  39 H39           -1.4860     4.6430     3.2715 H       
  40 H40           -0.8820     3.0715     2.6936 H       
  41 H41           -2.4101     7.5138     1.7594 H       
  42 H42           -5.0961    -3.1803    -1.6573 H       
  43 H43           -4.9898    -2.9124     0.0961 H       
  44 H44           -2.6271    -3.1942    -1.7929 H       
  45 H45           -3.2566    -1.6628    -1.1601 H       
  46 H46           -0.9864    -4.3433     0.9424 H       
  47 H47           -2.5869    -5.8218     1.8511 H       
  48 H48           -3.0744    -4.1892     2.3297 H       
  49 H49           -5.0712    -4.4656     1.3934 H       
  50 H50           -4.6302    -6.1481     1.0415 H       
  51 H51           -3.3986    -6.5516    -1.1279 H       
  52 H52           -3.4210    -5.2596    -2.3417 H       
  53 H53           -1.5051    -4.3696    -1.5849 H       
  54 H54           -1.2905    -5.9018    -0.7179 H       
@<TRIPOS>BOND
   1    1    2 1
   2    1    8 2
   3    1    9 am
   4    2    3 ar
   5    2    7 ar
   6    3    4 ar
   7    3   10 1
   8    4    5 ar
   9    4   28 1
  10    5    6 ar
  11    6    7 ar
  12    6   22 1
  13    7   29 1
  14    9   13 1
  15    9   30 1
  16   10   11 2
  17   10   12 2
  18   13   14 1
  19   13   31 1
  20   13   32 1
  21   14   15 1
  22   14   16 1
  23   14   17 1
  24   15   18 1
  25   15   33 1
  26   15   34 1
  27   16   35 1
  28   16   36 1
  29   16   37 1
  30   17   38 1
  31   17   39 1
  32   17   40 1
  33   18   41 1
  34   19   20 1
  35   19   25 1
  36   19   26 1
  37   20   21 1
  38   20   42 1
  39   20   43 1
  40   21   22 1
  41   21   44 1
  42   21   45 1
  43   22   23 1
  44   23   24 1
  45   23   27 1
  46   23   46 1
  47   24   25 1
  48   24   47 1
  49   24   48 1
  50   25   49 1
  51   25   50 1
  52   26   27 1
  53   26   51 1
  54   26   52 1
  55   27   53 1
  56   27   54 1

#	End of record

