#	Name: ASD01884765
#	Creating user name:	WinNT
#	Creation time:	15. 06. 2019 19:48

#	Modifying user name:	WinNT
#	Modification time:	15. 06. 2019 19:48

#	Program:	/corina/corina34_cracker 3.40 0067  02.08.2006

@<TRIPOS>MOLECULE
ASD01884765
  50   52    0    0    0
SMALL
NO_CHARGES


@<TRIPOS>ATOM
   1 C1            -0.4192     1.3533     0.0272 C.2     
   2 C2            -0.2672    -0.0310     0.0226 C.2     
   3 C3            -1.3700    -0.8348     0.3349 C.2     
   4 C4            -2.5678    -0.2607     0.6364 C.2     
   5 N5            -2.7177     1.0886     0.6413 N.am    
   6 C6            -1.6853     1.9035     0.3540 C.2     
   7 O7            -1.8411     3.1130     0.3642 O.2     
   8 C8            -4.0227     1.6674     0.9704 C.3     
   9 C9             0.6862     2.2076    -0.2871 C.1     
  10 N10            1.5631     2.8854    -0.5364 N.1     
  11 C11           -4.1081     1.9011     2.4567 C.ar    
  12 N12           -1.2414    -2.2321     0.3369 N.pl3   
  13 C13           -3.6963     3.1083     2.9903 C.ar    
  14 C14           -3.7736     3.3250     4.3525 C.ar    
  15 C15           -4.2649     2.3301     5.1852 C.ar    
  16 C16           -4.6774     1.1197     4.6473 C.ar    
  17 C17           -4.6034     0.9100     3.2838 C.ar    
  18 C18           -0.0130    -2.9800     0.0313 C.3     
  19 C19           -0.3537    -4.4818     0.1328 C.3     
  20 C20           -1.8926    -4.5031    -0.0644 C.3     
  21 C21           -2.3140    -3.1932     0.6519 C.3     
  22 N22            0.3173    -5.2400    -0.9315 N.3     
  23 C23            1.7777    -5.1575    -0.7962 C.3     
  24 C24           -0.1320    -6.6386    -0.9449 C.3     
  25 O25           -4.3415     2.5407     6.5256 O.3     
  26 C26           -4.8575     1.4721     7.3217 C.3     
  27 F27           -4.0493     0.3410     7.1645 F       
  28 F28           -4.8667     1.8553     8.6672 F       
  29 F29           -6.1618     1.1737     6.9129 F       
  30 H30            0.6862    -0.4774    -0.2183 H       
  31 H31           -3.4127    -0.8896     0.8752 H       
  32 H32           -4.1423     2.6155     0.4461 H       
  33 H33           -4.8122     0.9809     0.6646 H       
  34 H34           -3.3135     3.8824     2.3417 H       
  35 H35           -3.4515     4.2680     4.7688 H       
  36 H36           -5.0602     0.3435     5.2934 H       
  37 H37           -4.9247    -0.0320     2.8646 H       
  38 H38            0.3235    -2.7437    -0.9781 H       
  39 H39            0.7642    -2.7267     0.7523 H       
  40 H40           -0.0853    -4.8726     1.1143 H       
  41 H41           -2.1512    -4.4741    -1.1229 H       
  42 H42           -2.3367    -5.3721     0.4210 H       
  43 H43           -2.3824    -3.3543     1.7277 H       
  44 H44           -3.2662    -2.8358     0.2597 H       
  45 H45            2.0771    -5.5687     0.1679 H       
  46 H46            2.2495    -5.7275    -1.5966 H       
  47 H47            2.0901    -4.1152    -0.8594 H       
  48 H48           -1.1880    -6.6785    -1.2122 H       
  49 H49            0.4494    -7.2000    -1.6763 H       
  50 H50            0.0093    -7.0751     0.0438 H       
@<TRIPOS>BOND
   1    1    2 2
   2    1    9 1
   3    1    6 1
   4    2    3 1
   5    2   30 1
   6    3    4 2
   7    3   12 1
   8    4    5 1
   9    4   31 1
  10    5    8 1
  11    5    6 am
  12    6    7 2
  13    8   11 1
  14    8   32 1
  15    8   33 1
  16    9   10 3
  17   11   13 ar
  18   11   17 ar
  19   12   18 1
  20   12   21 1
  21   13   14 ar
  22   13   34 1
  23   14   15 ar
  24   14   35 1
  25   15   25 1
  26   15   16 ar
  27   16   17 ar
  28   16   36 1
  29   17   37 1
  30   18   19 1
  31   18   38 1
  32   18   39 1
  33   19   20 1
  34   19   22 1
  35   19   40 1
  36   20   21 1
  37   20   41 1
  38   20   42 1
  39   21   43 1
  40   21   44 1
  41   22   23 1
  42   22   24 1
  43   23   45 1
  44   23   46 1
  45   23   47 1
  46   24   48 1
  47   24   49 1
  48   24   50 1
  49   25   26 1
  50   26   27 1
  51   26   28 1
  52   26   29 1

#	End of record

