#	Name: ASD01190127
#	Creating user name:	WinNT
#	Creation time:	15. 06. 2019 19:07

#	Modifying user name:	WinNT
#	Modification time:	15. 06. 2019 19:07

#	Program:	/corina/corina34_cracker 3.40 0067  02.08.2006

@<TRIPOS>MOLECULE
ASD01190127
  57   61    0    0    0
SMALL
NO_CHARGES


@<TRIPOS>ATOM
   1 C1            -4.5026    -0.6265     3.1919 C.3     
   2 C2            -3.8733    -1.3383     1.9927 C.3     
   3 C3            -2.8314    -2.3444     2.4859 C.3     
   4 O4            -5.3899     0.3934     2.7286 O.3     
   5 O5            -4.8893    -2.0255     1.2596 O.3     
   6 N6            -2.1449    -2.9395     1.3367 N.pl3   
   7 C7            -2.4879    -4.1235     0.7428 C.2     
   8 C8            -1.6580    -4.3793    -0.2808 C.2     
   9 C9            -0.7057    -3.2683    -0.3480 C.ar    
  10 C10            0.3747    -2.9649    -1.1789 C.ar    
  11 C11            1.0847    -1.8154    -0.9757 C.ar    
  12 C12            0.7407    -0.9460     0.0505 C.ar    
  13 C13           -0.3211    -1.2260     0.8821 C.ar    
  14 C14           -1.0620    -2.3877     0.6896 C.ar    
  15 C15           -1.6984    -5.5815    -1.1887 C.3     
  16 C16           -2.7785    -6.5506    -0.7039 C.3     
  17 O17           -1.9981    -5.1621    -2.5215 O.3     
  18 C18            1.5459    -7.1723    -2.2918 C.2     
  19 C19            0.2948    -6.5269    -2.3333 C.2     
  20 C20           -0.3587    -6.2714    -1.1685 C.2     
  21 C21            0.2206    -6.6532     0.0560 C.2     
  22 C22            1.4184    -7.2703     0.0845 C.2     
  23 N23            2.0919    -7.5363    -1.0771 N.pl3   
  24 C24            3.2890    -8.1325    -1.3462 C.2     
  25 N25            3.4801    -8.1409    -2.6516 N.2     
  26 C26            2.4449    -7.5734    -3.2636 C.2     
  27 C27            4.2205    -8.6796    -0.3393 C.ar    
  28 C28            4.1838    -8.2126     0.9765 C.ar    
  29 C29            5.0561    -8.7272     1.9124 C.ar    
  30 C30            5.9682    -9.7055     1.5494 C.ar    
  31 C31            6.0092   -10.1727     0.2453 C.ar    
  32 C32            5.1377    -9.6701    -0.6978 C.ar    
  33 F33            6.8210   -10.2054     2.4704 F       
  34 F34           -4.0221    -5.9101    -0.7227 F       
  35 F35           -2.8160    -7.6666    -1.5467 F       
  36 F36           -2.4850    -6.9613     0.6008 F       
  37 H37           -5.0589    -1.3472     3.7913 H       
  38 H38           -3.7180    -0.1767     3.8002 H       
  39 H39           -3.3921    -0.6045     1.3461 H       
  40 H40           -2.1052    -1.8345     3.1189 H       
  41 H41           -3.3263    -3.1282     3.0593 H       
  42 H42           -5.8256     0.8871     3.4368 H       
  43 H43           -5.3606    -2.6953     1.7738 H       
  44 H44           -3.3050    -4.7584     1.0521 H       
  45 H45            0.6484    -3.6367    -1.9790 H       
  46 H46            1.9205    -1.5814    -1.6185 H       
  47 H47            1.3115    -0.0412     0.1985 H       
  48 H48           -0.5807    -0.5435     1.6778 H       
  49 H49           -1.3536    -4.5448    -2.8939 H       
  50 H50           -0.1401    -6.2381    -3.2788 H       
  51 H51           -0.2990    -6.4496     0.9807 H       
  52 H52            1.8505    -7.5574     1.0318 H       
  53 H53            2.3275    -7.4470    -4.3298 H       
  54 H54            3.4739    -7.4498     1.2604 H       
  55 H55            5.0286    -8.3669     2.9302 H       
  56 H56            6.7224   -10.9349    -0.0320 H       
  57 H57            5.1676   -10.0380    -1.7127 H       
@<TRIPOS>BOND
   1    1    2 1
   2    1    4 1
   3    1   37 1
   4    1   38 1
   5    2    3 1
   6    2    5 1
   7    2   39 1
   8    3    6 1
   9    3   40 1
  10    3   41 1
  11    4   42 1
  12    5   43 1
  13    6    7 1
  14    6   14 1
  15    7    8 2
  16    7   44 1
  17    8    9 1
  18    8   15 1
  19    9   10 ar
  20    9   14 ar
  21   10   11 ar
  22   10   45 1
  23   11   12 ar
  24   11   46 1
  25   12   13 ar
  26   12   47 1
  27   13   14 ar
  28   13   48 1
  29   15   16 1
  30   15   17 1
  31   15   20 1
  32   16   34 1
  33   16   35 1
  34   16   36 1
  35   17   49 1
  36   18   19 1
  37   18   23 1
  38   18   26 2
  39   19   20 2
  40   19   50 1
  41   20   21 1
  42   21   22 2
  43   21   51 1
  44   22   23 1
  45   22   52 1
  46   23   24 1
  47   24   25 2
  48   24   27 1
  49   25   26 1
  50   26   53 1
  51   27   28 ar
  52   27   32 ar
  53   28   29 ar
  54   28   54 1
  55   29   30 ar
  56   29   55 1
  57   30   31 ar
  58   30   33 1
  59   31   32 ar
  60   31   56 1
  61   32   57 1

#	End of record

