#	Name: ASD02039153
#	Creating user name:	WinNT
#	Creation time:	15. 06. 2019 20:17

#	Modifying user name:	WinNT
#	Modification time:	15. 06. 2019 20:17

#	Program:	/corina/corina34_cracker 3.40 0067  02.08.2006

@<TRIPOS>MOLECULE
ASD02039153
  46   49    0    0    0
SMALL
NO_CHARGES


@<TRIPOS>ATOM
   1 N1            -0.0424     1.3696    -0.1210 N.2     
   2 C2            -0.0048     0.0644    -0.0763 C.2     
   3 N3             1.2925    -0.3011    -0.1575 N.2     
   4 C4             1.9688     0.8176    -0.2474 C.2     
   5 O5             1.0810     1.8164    -0.2190 O.3     
   6 C6             3.4654     0.9528    -0.3604 C.3     
   7 O7             3.7822     1.9088    -1.3741 O.3     
   8 C8             4.9976     1.7941    -1.9726 C.ar    
   9 N9            -1.0959    -0.7882     0.0348 N.pl3   
  10 C10           -2.3850    -0.2606     0.1768 C.ar    
  11 C11           -2.7002     0.9662    -0.3928 C.ar    
  12 C12           -3.9719     1.4864    -0.2525 C.ar    
  13 C13           -4.9348     0.7840     0.4566 C.ar    
  14 C14           -4.6212    -0.4422     1.0264 C.ar    
  15 C15           -3.3504    -0.9663     0.8823 C.ar    
  16 C16            5.3247     2.6246    -3.0416 C.ar    
  17 C17            6.5516     2.5228    -3.6599 C.ar    
  18 C18            7.4768     1.5836    -3.2172 C.ar    
  19 C19            7.1502     0.7421    -2.1370 C.ar    
  20 C20            5.9035     0.8586    -1.5141 C.ar    
  21 N21            8.7108     1.4654    -3.8240 N.am    
  22 C22            9.6065     0.5576    -3.3986 C.2     
  23 C23            9.3277    -0.3094    -2.3205 C.2     
  24 C24            8.1334    -0.2429    -1.6820 C.2     
  25 O25           10.6866     0.4812    -3.9583 O.2     
  26 O26           -6.1869     1.2971     0.5941 O.3     
  27 Cl27          -5.8268    -1.3205     1.9144 Cl      
  28 C28           -6.4398     2.5635    -0.0176 C.3     
  29 C29            4.0377     1.4211     0.9791 C.3     
  30 H30            3.8986    -0.0123    -0.6230 H       
  31 H31           -0.9646    -1.7490     0.0140 H       
  32 H32           -1.9508     1.5136    -0.9451 H       
  33 H33           -4.2165     2.4407    -0.6950 H       
  34 H34           -3.1062    -1.9205     1.3252 H       
  35 H35            4.6096     3.3554    -3.3894 H       
  36 H36            6.7946     3.1718    -4.4882 H       
  37 H37            5.6481     0.2156    -0.6848 H       
  38 H38            8.9348     2.0454    -4.5685 H       
  39 H39           10.0684    -1.0282    -2.0027 H       
  40 H40            7.9121    -0.9022    -0.8556 H       
  41 H41           -6.2704     2.4885    -1.0918 H       
  42 H42           -7.4732     2.8566     0.1676 H       
  43 H43           -5.7687     3.3115     0.4046 H       
  44 H44            5.1203     1.5189     0.8974 H       
  45 H45            3.6046     2.3863     1.2417 H       
  46 H46            3.7961     0.6919     1.7523 H       
@<TRIPOS>BOND
   1    1    2 2
   2    1    5 1
   3    2    3 1
   4    2    9 1
   5    3    4 2
   6    4    5 1
   7    4    6 1
   8    6    7 1
   9    6   29 1
  10    6   30 1
  11    7    8 1
  12    8   16 ar
  13    8   20 ar
  14    9   10 1
  15    9   31 1
  16   10   11 ar
  17   10   15 ar
  18   11   12 ar
  19   11   32 1
  20   12   13 ar
  21   12   33 1
  22   13   14 ar
  23   13   26 1
  24   14   15 ar
  25   14   27 1
  26   15   34 1
  27   16   17 ar
  28   16   35 1
  29   17   18 ar
  30   17   36 1
  31   18   19 ar
  32   18   21 1
  33   19   20 ar
  34   19   24 1
  35   20   37 1
  36   21   22 am
  37   21   38 1
  38   22   23 1
  39   22   25 2
  40   23   24 2
  41   23   39 1
  42   24   40 1
  43   26   28 1
  44   28   41 1
  45   28   42 1
  46   28   43 1
  47   29   44 1
  48   29   45 1
  49   29   46 1

#	End of record

