#	Name: ASD02508302
#	Creating user name:	WinNT
#	Creation time:	15. 06. 2019 20:24

#	Modifying user name:	WinNT
#	Modification time:	15. 06. 2019 20:24

#	Program:	/corina/corina34_cracker 3.40 0067  02.08.2006

@<TRIPOS>MOLECULE
ASD02508302
  48   51    0    0    0
SMALL
NO_CHARGES


@<TRIPOS>ATOM
   1 C1            -0.0167     1.3822     0.0096 C.ar    
   2 C2             0.0021    -0.0041     0.0020 C.ar    
   3 C3            -1.1787    -0.7208     0.0099 C.ar    
   4 C4            -2.3927    -0.0590     0.0254 C.ar    
   5 C5            -2.4225     1.3232     0.0331 C.ar    
   6 C6            -1.2466     2.0430     0.0303 C.ar    
   7 S7            -3.8979    -0.9750     0.0348 S.o2    
   8 C8            -4.6232    -0.1587     2.4483 C.ar    
   9 C9            -5.4743     0.8382     1.9913 C.ar    
  10 C10           -4.0963    -0.0863     3.7305 C.ar    
  11 C11           -4.4202     0.9807     4.5541 C.ar    
  12 C12           -5.2708     1.9787     4.0925 C.ar    
  13 C13           -5.7961     1.9027     2.8117 C.ar    
  14 O14           -3.9014     1.0341     5.8113 O.3     
  15 C15           -3.9478     2.3025     6.4737 C.3     
  16 C16           -5.3529     2.8909     6.2879 C.3     
  17 O17           -5.5948     3.0388     4.8846 O.3     
  18 N18            1.2735     1.9146     0.0002 N.am    
  19 C19            2.2636     0.8345    -0.0151 C.3     
  20 C20            1.4422    -0.4652    -0.0142 C.3     
  21 O21           -4.8955    -0.1129    -0.4951 O.2     
  22 O22           -3.5963    -2.2481    -0.5199 O.2     
  23 S23            1.6329     3.5311     0.0046 S.o2    
  24 O24            2.9105     3.6077    -0.6127 O.2     
  25 O25            0.4956     4.1445    -0.5866 O.2     
  26 C26            1.7482     3.9644     1.7623 C.3     
  27 C27            3.1219     0.9190    -1.2788 C.3     
  28 N28           -4.3012    -1.2389     1.6191 N.am    
  29 H29           -1.1536    -1.8004     0.0035 H       
  30 H30           -3.3703     1.8409     0.0453 H       
  31 H31           -1.2769     3.1226     0.0364 H       
  32 H32           -5.8848     0.7821     0.9939 H       
  33 H33           -3.4342    -0.8616     4.0867 H       
  34 H34           -6.4581     2.6775     2.4541 H       
  35 H35           -3.7422     2.1702     7.5359 H       
  36 H36           -3.2078     2.9728     6.0363 H       
  37 H37           -6.0934     2.2176     6.7197 H       
  38 H38           -5.4114     3.8639     6.7756 H       
  39 H39            2.8922     0.8851     0.8740 H       
  40 H40            1.6630    -1.0541     0.8760 H       
  41 H41            1.6459    -1.0445    -0.9148 H       
  42 H42            2.5333     3.3717     2.2319 H       
  43 H43            1.9848     5.0238     1.8606 H       
  44 H44            0.7958     3.7579     2.2506 H       
  45 H45            3.6405     1.8775    -1.3024 H       
  46 H46            3.8529     0.1105    -1.2763 H       
  47 H47            2.4839     0.8294    -2.1580 H       
  48 H48           -4.3143    -2.1422     1.9723 H       
@<TRIPOS>BOND
   1    1    2 ar
   2    1   18 1
   3    1    6 ar
   4    2    3 ar
   5    2   20 1
   6    3    4 ar
   7    3   29 1
   8    4    5 ar
   9    4    7 1
  10    5    6 ar
  11    5   30 1
  12    6   31 1
  13    7   21 2
  14    7   22 2
  15    7   28 am
  16    8    9 ar
  17    8   10 ar
  18    8   28 1
  19    9   13 ar
  20    9   32 1
  21   10   11 ar
  22   10   33 1
  23   11   12 ar
  24   11   14 1
  25   12   13 ar
  26   12   17 1
  27   13   34 1
  28   14   15 1
  29   15   16 1
  30   15   35 1
  31   15   36 1
  32   16   17 1
  33   16   37 1
  34   16   38 1
  35   18   19 1
  36   18   23 am
  37   19   20 1
  38   19   27 1
  39   19   39 1
  40   20   40 1
  41   20   41 1
  42   23   24 2
  43   23   25 2
  44   23   26 1
  45   26   42 1
  46   26   43 1
  47   26   44 1
  48   27   45 1
  49   27   46 1
  50   27   47 1
  51   28   48 1

#	End of record

