#	Name: ASD08150432
#	Creating user name:	WinNT
#	Creation time:	15. 06. 2019 21:16

#	Modifying user name:	WinNT
#	Modification time:	15. 06. 2019 21:16

#	Program:	/corina/corina34_cracker 3.40 0067  02.08.2006

@<TRIPOS>MOLECULE
ASD08150432
  45   46    0    0    0
SMALL
NO_CHARGES


@<TRIPOS>ATOM
   1 C1             0.0302     1.9418    -0.4426 C.2     
   2 C2             0.2392     0.4522    -0.3517 C.3     
   3 O3             0.9629     2.6687    -0.6910 O.2     
   4 O4            -1.1931     2.4607    -0.2530 O.3     
   5 C5            -1.3203     3.9035    -0.3555 C.3     
   6 C6            -1.6363     4.2861    -1.8028 C.3     
   7 C7            -2.4343     4.3747     0.5434 C.2     
   8 N8            -2.7359     5.6865     0.6118 N.am    
   9 O9            -3.0595     3.5735     1.2051 O.2     
  10 C10           -3.8389     6.1100     1.3496 C.ar    
  11 C11           -3.9320     7.4436     1.7761 C.ar    
  12 C12           -5.0430     7.8555     2.5152 C.ar    
  13 C13           -6.0388     6.9526     2.8206 C.ar    
  14 C14           -5.9436     5.6368     2.3983 C.ar    
  15 C15           -4.8541     5.2164     1.6616 C.ar    
  16 C16           -2.8626     8.4044     1.4463 C.2     
  17 N17           -1.8196     8.5657     2.2845 N.am    
  18 O18           -2.9220     9.0509     0.4181 O.2     
  19 C19           -0.7527     9.3939     1.9217 C.ar    
  20 C20           -0.3742     9.4980     0.5895 C.ar    
  21 C21            0.6799    10.3167     0.2346 C.ar    
  22 C22            1.3586    11.0320     1.2041 C.ar    
  23 C23            0.9846    10.9302     2.5316 C.ar    
  24 C24           -0.0729    10.1184     2.8923 C.ar    
  25 C25           -5.1529     9.2852     2.9788 C.3     
  26 H26            0.4877     0.1821     0.6746 H       
  27 H27           -0.6740    -0.0618    -0.6517 H       
  28 H28            1.0550     0.1587    -1.0123 H       
  29 H29           -0.3849     4.3732    -0.0515 H       
  30 H30           -1.7318     5.3692    -1.8797 H       
  31 H31           -0.8306     3.9453    -2.4529 H       
  32 H32           -2.5718     3.8164    -2.1068 H       
  33 H33           -2.1848     6.3357     0.1473 H       
  34 H34           -6.8974     7.2727     3.3922 H       
  35 H35           -6.7286     4.9366     2.6428 H       
  36 H36           -4.7896     4.1901     1.3316 H       
  37 H37           -1.8090     8.1074     3.1393 H       
  38 H38           -0.9034     8.9391    -0.1681 H       
  39 H39            0.9747    10.3981    -0.8012 H       
  40 H40            2.1828    11.6713     0.9241 H       
  41 H41            1.5172    11.4897     3.2864 H       
  42 H42           -0.3678    10.0434     3.9285 H       
  43 H43           -5.6677     9.8746     2.2200 H       
  44 H44           -5.7156     9.3225     3.9115 H       
  45 H45           -4.1548     9.6926     3.1400 H       
@<TRIPOS>BOND
   1    1    2 1
   2    1    3 2
   3    1    4 1
   4    2   26 1
   5    2   27 1
   6    2   28 1
   7    4    5 1
   8    5    6 1
   9    5    7 1
  10    5   29 1
  11    6   30 1
  12    6   31 1
  13    6   32 1
  14    7    8 am
  15    7    9 2
  16    8   10 1
  17    8   33 1
  18   10   11 ar
  19   10   15 ar
  20   11   12 ar
  21   11   16 1
  22   12   13 ar
  23   12   25 1
  24   13   14 ar
  25   13   34 1
  26   14   15 ar
  27   14   35 1
  28   15   36 1
  29   16   17 am
  30   16   18 2
  31   17   19 1
  32   17   37 1
  33   19   20 ar
  34   19   24 ar
  35   20   21 ar
  36   20   38 1
  37   21   22 ar
  38   21   39 1
  39   22   23 ar
  40   22   40 1
  41   23   24 ar
  42   23   41 1
  43   24   42 1
  44   25   43 1
  45   25   44 1
  46   25   45 1

#	End of record

