#	Name: ASD02030681
#	Creating user name:	WinNT
#	Creation time:	15. 06. 2019 20:15

#	Modifying user name:	WinNT
#	Modification time:	15. 06. 2019 20:15

#	Program:	/corina/corina34_cracker 3.40 0067  02.08.2006

@<TRIPOS>MOLECULE
ASD02030681
  61   63    0    0    0
SMALL
NO_CHARGES


@<TRIPOS>ATOM
   1 N1            -0.0366     1.3655     0.0825 N.am    
   2 C2             0.1028     0.0250     0.0721 C.2     
   3 C3            -1.0884    -0.8416     0.1649 C.ar    
   4 O4             1.2099    -0.4705    -0.0137 O.2     
   5 C5            -0.9461    -2.2316     0.1543 C.ar    
   6 C6            -2.0601    -3.0367     0.2415 C.ar    
   7 C7            -3.3244    -2.4684     0.3400 C.ar    
   8 C8            -3.4704    -1.0864     0.3505 C.ar    
   9 C9            -2.3611    -0.2743     0.2694 C.ar    
  10 O10           -4.4202    -3.2656     0.4259 O.3     
  11 C11           -4.5395    -4.0240     1.5327 C.2     
  12 N12           -5.5472    -4.9131     1.6350 N.am    
  13 O13           -3.7385    -3.9067     2.4389 O.2     
  14 C14            1.0929     2.1844     0.0731 C.ar    
  15 C15            2.2781     1.7286    -0.4634 C.ar    
  16 C16            3.4103     2.5374    -0.4777 C.ar    
  17 C17            3.3802     3.7983     0.0358 C.ar    
  18 C18            2.1917     4.3012     0.5917 C.ar    
  19 C19            1.0310     3.4890     0.6076 C.ar    
  20 C20           -6.5129    -5.0546     0.5425 C.3     
  21 C21           -5.6770    -5.7379     2.8388 C.3     
  22 C22            2.1309     5.5990     1.1285 C.ar    
  23 C23            0.9632     6.0546     1.6587 C.ar    
  24 C24           -0.1765     5.2531     1.6782 C.ar    
  25 C25           -0.1556     3.9930     1.1628 C.ar    
  26 C26           -6.0175    -6.1160    -0.4418 C.3     
  27 C27           -7.0261    -6.2638    -1.5828 C.3     
  28 C28           -6.5307    -7.3252    -2.5671 C.3     
  29 C29           -6.5537    -5.0129     3.8618 C.3     
  30 C30           -6.6892    -5.8744     5.1189 C.3     
  31 C31           -7.5660    -5.1494     6.1419 C.3     
  32 H32           -0.9223     1.7609     0.0925 H       
  33 H33            0.0362    -2.6740     0.0774 H       
  34 H34           -1.9510    -4.1111     0.2331 H       
  35 H35           -4.4548    -0.6487     0.4268 H       
  36 H36           -2.4754     0.7996     0.2776 H       
  37 H37            2.3285     0.7322    -0.8772 H       
  38 H38            4.3282     2.1588    -0.9026 H       
  39 H39            4.2702     4.4098     0.0195 H       
  40 H40           -7.4784    -5.3574     0.9479 H       
  41 H41           -6.6190    -4.1009     0.0255 H       
  42 H42           -6.1359    -6.6916     2.5780 H       
  43 H43           -4.6900    -5.9145     3.2664 H       
  44 H44            3.0065     6.2313     1.1204 H       
  45 H45            0.9193     7.0519     2.0708 H       
  46 H46           -1.0908     5.6384     2.1049 H       
  47 H47           -1.0466     3.3829     1.1844 H       
  48 H48           -5.0521    -5.8132    -0.8472 H       
  49 H49           -5.9115    -7.0697     0.0752 H       
  50 H50           -7.9915    -6.5666    -1.1774 H       
  51 H51           -7.1321    -5.3101    -2.0998 H       
  52 H52           -7.2492    -7.4305    -3.3800 H       
  53 H53           -5.5652    -7.0224    -2.9725 H       
  54 H54           -6.4247    -8.2789    -2.0501 H       
  55 H55           -6.0949    -4.0592     4.1226 H       
  56 H56           -7.5407    -4.8364     3.4342 H       
  57 H57           -7.1481    -6.8281     4.8582 H       
  58 H58           -5.7023    -6.0509     5.5465 H       
  59 H59           -7.1071    -4.1957     6.4027 H       
  60 H60           -8.5530    -4.9728     5.7144 H       
  61 H61           -7.6625    -5.7631     7.0376 H       
@<TRIPOS>BOND
   1    1    2 am
   2    1   14 1
   3    1   32 1
   4    2    3 1
   5    2    4 2
   6    3    5 ar
   7    3    9 ar
   8    5    6 ar
   9    5   33 1
  10    6    7 ar
  11    6   34 1
  12    7    8 ar
  13    7   10 1
  14    8    9 ar
  15    8   35 1
  16    9   36 1
  17   10   11 1
  18   11   12 am
  19   11   13 2
  20   12   20 1
  21   12   21 1
  22   14   15 ar
  23   14   19 ar
  24   15   16 ar
  25   15   37 1
  26   16   17 ar
  27   16   38 1
  28   17   18 ar
  29   17   39 1
  30   18   19 ar
  31   18   22 ar
  32   19   25 ar
  33   20   26 1
  34   20   40 1
  35   20   41 1
  36   21   29 1
  37   21   42 1
  38   21   43 1
  39   22   23 ar
  40   22   44 1
  41   23   24 ar
  42   23   45 1
  43   24   25 ar
  44   24   46 1
  45   25   47 1
  46   26   27 1
  47   26   48 1
  48   26   49 1
  49   27   28 1
  50   27   50 1
  51   27   51 1
  52   28   52 1
  53   28   53 1
  54   28   54 1
  55   29   30 1
  56   29   55 1
  57   29   56 1
  58   30   31 1
  59   30   57 1
  60   30   58 1
  61   31   59 1
  62   31   60 1
  63   31   61 1

#	End of record

