#	Name: ASD08150086
#	Creating user name:	WinNT
#	Creation time:	15. 06. 2019 21:15

#	Modifying user name:	WinNT
#	Modification time:	15. 06. 2019 21:15

#	Program:	/corina/corina34_cracker 3.40 0067  02.08.2006

@<TRIPOS>MOLECULE
ASD08150086
  61   64    0    0    0
SMALL
NO_CHARGES


@<TRIPOS>ATOM
   1 O1            -0.0453     1.5389    -0.2436 O.3     
   2 C2            -0.2205     0.2134    -0.2837 C.2     
   3 N3             0.9047    -0.4882    -0.0902 N.am    
   4 C4             2.0206     0.4484     0.1130 C.3     
   5 C5             1.3591     1.8360     0.0060 C.3     
   6 O6            -1.3012    -0.3069    -0.4774 O.2     
   7 C7             3.0769     0.2709    -0.9795 C.3     
   8 C8             1.5191     2.6089     1.3166 C.3     
   9 C9             0.8705     3.9877     1.1780 C.3     
  10 C10            1.1480     4.8108     2.4376 C.3     
  11 C11            1.4550     4.7062    -0.0398 C.3     
  12 O12           -0.5404     3.8357     1.0096 O.3     
  13 C13            2.2555    -3.7891     0.2270 C.ar    
  14 N14            1.2259    -4.5702    -0.0595 N.ar    
  15 C15            0.0394    -4.0480    -0.3702 C.ar    
  16 C16           -0.1058    -2.6614    -0.3901 C.ar    
  17 C17            1.0016    -1.8755    -0.0827 C.ar    
  18 N18            2.1531    -2.4685     0.2176 N.ar    
  19 C19           -3.1863    -6.5219    -1.2688 C.ar    
  20 N20           -2.0186    -7.0711    -0.9639 N.ar    
  21 C21           -0.9718    -6.3201    -0.6732 C.ar    
  22 C22           -1.1089    -4.9287    -0.6904 C.ar    
  23 C23           -2.3566    -4.3895    -1.0168 C.ar    
  24 N24           -3.3556    -5.2074    -1.2957 N.ar    
  25 C25            0.3511    -6.9537    -0.3275 C.3     
  26 F26            0.2606    -8.3403    -0.4896 F       
  27 F27            1.3449    -6.4492    -1.1730 F       
  28 F28            0.6758    -6.6598     1.0012 F       
  29 O29            5.2113    -5.9499     2.0850 O.3     
  30 C30            4.7581    -6.4321     0.8172 C.3     
  31 C31            3.3817    -5.8350     0.5125 C.3     
  32 N32            3.4703    -4.3680     0.5507 N.3     
  33 C33            3.9391    -3.9085     1.8661 C.3     
  34 C34            5.3099    -4.5250     2.1572 C.3     
  35 N35           -4.2557    -7.3431    -1.5726 N.pl3   
  36 H36            2.4620     0.3097     1.0999 H       
  37 H37            1.7842     2.3989    -0.8251 H       
  38 H38            2.6215     0.4372    -1.9558 H       
  39 H39            3.8818     0.9898    -0.8269 H       
  40 H40            3.4799    -0.7408    -0.9343 H       
  41 H41            1.0352     2.0593     2.1240 H       
  42 H42            2.5790     2.7270     1.5417 H       
  43 H43            2.2240     4.9317     2.5628 H       
  44 H44            0.6810     5.7910     2.3413 H       
  45 H45            0.7367     4.2961     3.3059 H       
  46 H46            1.2573     4.1198    -0.9371 H       
  47 H47            0.9930     5.6885    -0.1385 H       
  48 H48            2.5312     4.8222     0.0887 H       
  49 H49           -0.7902     3.3230     0.2287 H       
  50 H50           -1.0541    -2.2080    -0.6383 H       
  51 H51           -2.5015    -3.3195    -1.0410 H       
  52 H52            5.4637    -6.1349     0.0413 H       
  53 H53            4.6849    -7.5193     0.8463 H       
  54 H54            3.0576    -6.1544    -0.4780 H       
  55 H55            2.6638    -6.1758     1.2586 H       
  56 H56            4.0219    -2.8217     1.8637 H       
  57 H57            3.2302    -4.2185     2.6338 H       
  58 H58            5.6358    -4.2328     3.1555 H       
  59 H59            6.0315    -4.1723     1.4203 H       
  60 H60           -4.1458    -8.3068    -1.5608 H       
  61 H61           -5.1160    -6.9557    -1.7975 H       
@<TRIPOS>BOND
   1    1    2 1
   2    1    5 1
   3    2    3 am
   4    2    6 2
   5    3    4 1
   6    3   17 1
   7    4    5 1
   8    4    7 1
   9    4   36 1
  10    5    8 1
  11    5   37 1
  12    7   38 1
  13    7   39 1
  14    7   40 1
  15    8    9 1
  16    8   41 1
  17    8   42 1
  18    9   10 1
  19    9   11 1
  20    9   12 1
  21   10   43 1
  22   10   44 1
  23   10   45 1
  24   11   46 1
  25   11   47 1
  26   11   48 1
  27   12   49 1
  28   13   14 ar
  29   13   18 ar
  30   13   32 1
  31   14   15 ar
  32   15   16 ar
  33   15   22 1
  34   16   17 ar
  35   16   50 1
  36   17   18 ar
  37   19   20 ar
  38   19   24 ar
  39   19   35 1
  40   20   21 ar
  41   21   22 ar
  42   21   25 1
  43   22   23 ar
  44   23   24 ar
  45   23   51 1
  46   25   26 1
  47   25   27 1
  48   25   28 1
  49   29   30 1
  50   29   34 1
  51   30   31 1
  52   30   52 1
  53   30   53 1
  54   31   32 1
  55   31   54 1
  56   31   55 1
  57   32   33 1
  58   33   34 1
  59   33   56 1
  60   33   57 1
  61   34   58 1
  62   34   59 1
  63   35   60 1
  64   35   61 1

#	End of record

