#	Name: ASD05490111
#	Creating user name:	WinNT
#	Creation time:	15. 06. 2019 21:01

#	Modifying user name:	WinNT
#	Modification time:	15. 06. 2019 21:01

#	Program:	/corina/corina34_cracker 3.40 0067  02.08.2006

@<TRIPOS>MOLECULE
ASD05490111
  73   77    0    0    0
SMALL
NO_CHARGES


@<TRIPOS>ATOM
   1 N1            -0.0178     1.4608     0.0101 N.pl3   
   2 O2             4.5582     2.8949    -0.0261 O.3     
   3 N3             2.7941     4.3826    -0.0015 N.ar    
   4 C4             1.4952     4.6638     0.0118 C.ar    
   5 C5             3.2233     3.1292    -0.0123 C.ar    
   6 N6             2.3949     2.0994    -0.0093 N.ar    
   7 C7             1.0795     2.2895     0.0040 C.ar    
   8 C8             0.5781     3.6006     0.0150 C.ar    
   9 N9             1.0558     5.9772     0.0226 N.pl3   
  10 C10           -1.1306     2.2546     0.0190 C.2     
  11 N11           -0.7773     3.5129     0.0270 N.2     
  12 C12            5.4173     4.0368    -0.0280 C.3     
  13 C13            6.8766     3.5771    -0.0442 C.3     
  14 O14            7.1483     2.8975    -1.2715 O.3     
  15 C15            8.4917     2.4246    -1.3889 C.3     
  16 C16            0.0021    -0.0041     0.0020 C.3     
  17 C17            0.0225    -0.5140     1.4200 C.ar    
  18 C18           -1.1674    -0.7635     2.0797 C.ar    
  19 C19           -1.1546    -1.2305     3.3784 C.ar    
  20 C20            0.0599    -1.4507     4.0249 C.ar    
  21 C21            1.2555    -1.1977     3.3555 C.ar    
  22 C22            1.2310    -0.7362     2.0550 C.ar    
  23 C23            0.0799    -1.9524     5.4213 C.ar    
  24 C24            1.2932    -2.1762     6.0781 C.ar    
  25 C25           -1.1101    -2.2022     6.1007 C.ar    
  26 N26           -1.0937    -2.6472     7.3407 N.ar    
  27 C27            0.0351    -2.8725     7.9844 C.ar    
  28 C28            1.2582    -2.6441     7.3803 C.ar    
  29 C29           -0.0084    -3.3811     9.4023 C.3     
  30 C30           -0.8555    -2.4364    10.2572 C.3     
  31 C31           -0.8996    -2.9528    11.6968 C.3     
  32 N32           -1.7130    -2.0458    12.5176 N.3     
  33 C33           -1.9767    -2.6287    13.8460 C.3     
  34 C34           -1.4563    -1.6256    14.8970 C.3     
  35 C35           -1.4432    -0.2821    14.1213 C.3     
  36 C36           -1.0346    -0.7450    12.7006 C.3     
  37 O37           -2.4073     1.8048     0.0270 O.3     
  38 C38           -3.4422     2.7900     0.0462 C.3     
  39 H39            1.6985     6.7037     0.0206 H       
  40 H40            0.1053     6.1706     0.0323 H       
  41 H41            5.2168     4.6408    -0.9129 H       
  42 H42            5.2335     4.6312     0.8670 H       
  43 H43            7.5315     4.4439     0.0439 H       
  44 H44            7.0539     2.9012     0.7924 H       
  45 H45            9.1802     3.2675    -1.3287 H       
  46 H46            8.7025     1.7248    -0.5803 H       
  47 H47            8.6170     1.9208    -2.3473 H       
  48 H48           -0.8878    -0.3767    -0.5053 H       
  49 H49            0.8920    -0.3525    -0.5222 H       
  50 H50           -2.1082    -0.5921     1.5778 H       
  51 H51           -2.0842    -1.4247     3.8927 H       
  52 H52            2.1996    -1.3663     3.8521 H       
  53 H53            2.1571    -0.5401     1.5352 H       
  54 H54            2.2341    -1.9893     5.5820 H       
  55 H55           -2.0548    -2.0293     5.6067 H       
  56 H56            2.1760    -2.8327     7.9174 H       
  57 H57           -0.4487    -4.3781     9.4174 H       
  58 H58            1.0041    -3.4250     9.8038 H       
  59 H59           -0.4151    -1.4395    10.2422 H       
  60 H60           -1.8679    -2.3925     9.8558 H       
  61 H61           -1.3400    -3.9498    11.7119 H       
  62 H62            0.1128    -2.9967    12.0983 H       
  63 H63           -3.0479    -2.7816    13.9778 H       
  64 H64           -1.4494    -3.5774    13.9460 H       
  65 H65           -2.1350    -1.5726    15.7483 H       
  66 H66           -0.4506    -1.8936    15.2206 H       
  67 H67           -2.4332     0.1740    14.1137 H       
  68 H68           -0.7032     0.4016    14.5372 H       
  69 H69            0.0466    -0.8687    12.6382 H       
  70 H70           -1.3792    -0.0290    11.9545 H       
  71 H71           -4.4139     2.2962     0.0508 H       
  72 H72           -3.3425     3.4042     0.9411 H       
  73 H73           -3.3595     3.4211    -0.8387 H       
@<TRIPOS>BOND
   1    1   16 1
   2    1    7 1
   3    1   10 1
   4    2   12 1
   5    2    5 1
   6    3    4 ar
   7    3    5 ar
   8    4    9 1
   9    4    8 ar
  10    5    6 ar
  11    6    7 ar
  12    7    8 ar
  13    8   11 1
  14    9   39 1
  15    9   40 1
  16   10   11 2
  17   10   37 1
  18   12   13 1
  19   12   41 1
  20   12   42 1
  21   13   14 1
  22   13   43 1
  23   13   44 1
  24   14   15 1
  25   15   45 1
  26   15   46 1
  27   15   47 1
  28   16   17 1
  29   16   48 1
  30   16   49 1
  31   17   18 ar
  32   17   22 ar
  33   18   19 ar
  34   18   50 1
  35   19   20 ar
  36   19   51 1
  37   20   21 ar
  38   20   23 1
  39   21   22 ar
  40   21   52 1
  41   22   53 1
  42   23   24 ar
  43   23   25 ar
  44   24   28 ar
  45   24   54 1
  46   25   26 ar
  47   25   55 1
  48   26   27 ar
  49   27   28 ar
  50   27   29 1
  51   28   56 1
  52   29   30 1
  53   29   57 1
  54   29   58 1
  55   30   31 1
  56   30   59 1
  57   30   60 1
  58   31   32 1
  59   31   61 1
  60   31   62 1
  61   32   33 1
  62   32   36 1
  63   33   34 1
  64   33   63 1
  65   33   64 1
  66   34   35 1
  67   34   65 1
  68   34   66 1
  69   35   36 1
  70   35   67 1
  71   35   68 1
  72   36   69 1
  73   36   70 1
  74   37   38 1
  75   38   71 1
  76   38   72 1
  77   38   73 1

#	End of record

