#	Name: ASD09740259
#	Creating user name:	WinNT
#	Creation time:	15. 06. 2019 21:23

#	Modifying user name:	WinNT
#	Modification time:	15. 06. 2019 21:23

#	Program:	/corina/corina34_cracker 3.40 0067  02.08.2006

@<TRIPOS>MOLECULE
ASD09740259
  56   58    0    0    0
SMALL
NO_CHARGES


@<TRIPOS>ATOM
   1 N1            -0.0144     1.2087     0.0087 N.2     
   2 O2             0.0021    -0.0041     0.0020 O.3     
   3 C3             1.2073     1.6747    -0.0005 C.2     
   4 N4             2.0407     0.6099    -0.0142 N.2     
   5 C5             1.2640    -0.4447    -0.0124 C.2     
   6 C6             1.1902    -2.5803     1.2081 C.ar    
   7 C7             1.6049     3.1047     0.0030 C.ar    
   8 C8             2.0751    -3.1456     2.1072 C.ar    
   9 C9             1.5992    -3.7790     3.2400 C.ar    
  10 C10            0.2384    -3.8469     3.4738 C.ar    
  11 C11           -0.6464    -3.2809     2.5752 C.ar    
  12 C12           -0.1705    -2.6486     1.4417 C.ar    
  13 C13            2.9530     3.4554    -0.0085 C.ar    
  14 C14            3.3172     4.7870    -0.0052 C.ar    
  15 C15            2.3465     5.7719     0.0100 C.ar    
  16 C16            1.0062     5.4292     0.0214 C.ar    
  17 C17            0.6309     4.1012     0.0119 C.ar    
  18 C18           -0.2804    -4.5384     4.7082 C.3     
  19 C19           -0.3937    -3.5264     5.8501 C.3     
  20 C20           -1.4509    -2.4776     5.4991 C.3     
  21 C21           -0.0458     6.5080     0.0383 C.3     
  22 N22           -0.4016     6.8667    -1.3411 N.3     
  23 C23           -1.5840     7.7379    -1.3702 C.3     
  24 C24            0.7328     7.4957    -2.0307 C.3     
  25 C25            1.7093    -1.8843    -0.0236 C.3     
  26 C26            1.1597    -2.5785    -1.2714 C.3     
  27 C27           -0.8007    -4.2506     7.1349 C.3     
  28 H28            3.1382    -3.0925     1.9246 H       
  29 H29            2.2905    -4.2212     3.9421 H       
  30 H30           -1.7095    -3.3345     2.7575 H       
  31 H31           -0.8619    -2.2068     0.7394 H       
  32 H32            3.7119     2.6871    -0.0196 H       
  33 H33            4.3621     5.0600    -0.0140 H       
  34 H34            2.6358     6.8124     0.0132 H       
  35 H35           -0.4156     3.8347     0.0205 H       
  36 H36           -1.2624    -4.9636     4.5009 H       
  37 H37            0.4070    -5.3342     4.9949 H       
  38 H38            0.5687    -3.0366     5.9984 H       
  39 H39           -2.4133    -2.9673     5.3508 H       
  40 H40           -1.5316    -1.7566     6.3126 H       
  41 H41           -1.1610    -1.9616     4.5838 H       
  42 H42           -0.9315     6.1437     0.5589 H       
  43 H43            0.3428     7.3864     0.5535 H       
  44 H44           -1.3757     8.6519    -0.8140 H       
  45 H45           -1.8255     7.9883    -2.4032 H       
  46 H46           -2.4282     7.2200    -0.9150 H       
  47 H47            1.5729     6.8016    -2.0557 H       
  48 H48            0.4421     7.7512    -3.0497 H       
  49 H49            1.0250     8.4009    -1.4984 H       
  50 H50            2.7984    -1.9277    -0.0337 H       
  51 H51            1.5351    -2.0751    -2.1623 H       
  52 H52            1.4818    -3.6198    -1.2796 H       
  53 H53            0.0706    -2.5351    -1.2614 H       
  54 H54           -0.0475    -4.9978     7.3850 H       
  55 H55           -0.8814    -3.5296     7.9484 H       
  56 H56           -1.7631    -4.7403     6.9867 H       
@<TRIPOS>BOND
   1    1    2 1
   2    1    3 2
   3    2    5 1
   4    3    4 1
   5    3    7 1
   6    4    5 2
   7    5   25 1
   8    6    8 ar
   9    6   12 ar
  10    6   25 1
  11    7   13 ar
  12    7   17 ar
  13    8    9 ar
  14    8   28 1
  15    9   10 ar
  16    9   29 1
  17   10   11 ar
  18   10   18 1
  19   11   12 ar
  20   11   30 1
  21   12   31 1
  22   13   14 ar
  23   13   32 1
  24   14   15 ar
  25   14   33 1
  26   15   16 ar
  27   15   34 1
  28   16   17 ar
  29   16   21 1
  30   17   35 1
  31   18   19 1
  32   18   36 1
  33   18   37 1
  34   19   20 1
  35   19   27 1
  36   19   38 1
  37   20   39 1
  38   20   40 1
  39   20   41 1
  40   21   22 1
  41   21   42 1
  42   21   43 1
  43   22   23 1
  44   22   24 1
  45   23   44 1
  46   23   45 1
  47   23   46 1
  48   24   47 1
  49   24   48 1
  50   24   49 1
  51   25   26 1
  52   25   50 1
  53   26   51 1
  54   26   52 1
  55   26   53 1
  56   27   54 1
  57   27   55 1
  58   27   56 1

#	End of record

