#	Name: ASD00731039
#	Creating user name:	WinNT
#	Creation time:	15. 06. 2019 18:37

#	Modifying user name:	WinNT
#	Modification time:	15. 06. 2019 18:37

#	Program:	/corina/corina34_cracker 3.40 0067  02.08.2006

@<TRIPOS>MOLECULE
ASD00731039
 247  247    0    0    0
SMALL
NO_CHARGES


@<TRIPOS>ATOM
   1 C1            -0.2017    -0.0484    -0.9348 C.2     
   2 O2            -0.3429    -1.2143    -1.2375 O.2     
   3 N3             2.1758    -0.4891    -1.1411 N.am    
   4 C4             1.1814     0.5411    -0.8313 C.3     
   5 C5            -3.6162     1.2464    -1.1025 C.2     
   6 O6            -3.2356     2.3923    -1.2160 O.2     
   7 N7            -1.2819     0.7215    -0.6963 N.am    
   8 C8            -2.6267     0.1500    -0.8028 C.3     
   9 C9            -2.9994    -0.5264     0.5180 C.3     
  10 O10           -3.0879     0.4588     1.5493 O.3     
  11 C11           -7.2536     1.6066    -1.0560 C.2     
  12 O12           -7.5202     0.4310    -0.9225 O.2     
  13 N13           -4.9240     0.9534    -1.2445 N.am    
  14 C14           -5.8860     2.0193    -1.5358 C.3     
  15 C15           -5.9287     2.2692    -3.0447 C.3     
  16 C16           -4.5404     2.6891    -3.5316 C.3     
  17 O17           -6.3264     1.0713    -3.7148 O.3     
  18 C18          -10.5240     2.9290    -1.2741 C.2     
  19 O19          -10.1168     3.7437    -2.0750 O.2     
  20 N20           -8.1805     2.5439    -0.7752 N.am    
  21 C21           -9.5483     2.1431    -0.4366 C.3     
  22 C22           -9.8090     2.4207     1.0453 C.3     
  23 C23           -8.8785     1.5835     1.8845 C.2     
  24 O24           -8.0552     0.8774     1.3520 O.2     
  25 O25           -8.9642     1.6224     3.2234 O.3     
  26 C26          -14.1231     3.5673    -1.2348 C.2     
  27 O27          -14.2620     3.0361    -0.1534 O.2     
  28 N28          -11.8490     2.7266    -1.1331 N.am    
  29 C29          -12.7974     3.4906    -1.9473 C.3     
  30 C30          -12.9839     2.7973    -3.2984 C.3     
  31 C31          -11.6659     2.8301    -4.0747 C.3     
  32 C32          -11.8523     2.1367    -5.4257 C.3     
  33 N33          -10.5903     2.1682    -6.1691 N.pl3   
  34 C34          -10.5147     1.6016    -7.4194 C.2     
  35 N35          -11.5658     1.0365    -7.9435 N.2     
  36 N36           -9.3303     1.6311    -8.1170 N.pl3   
  37 C37          -17.5439     4.5092    -2.1148 C.2     
  38 O38          -17.2780     4.5877    -3.2955 O.2     
  39 N39          -15.1544     4.2263    -1.7994 N.am    
  40 C40          -16.4432     4.3008    -1.1068 C.3     
  41 C41          -16.4257     5.4712    -0.1215 C.3     
  42 C42          -15.3926     5.2003     0.9740 C.3     
  43 C43          -15.2856     6.4227     1.8878 C.3     
  44 C44          -15.8277     3.9855     1.7962 C.3     
  45 C45          -21.0664     5.4816    -2.0161 C.2     
  46 O46          -21.0135     5.7627    -0.8375 O.2     
  47 N47          -18.8238     4.6083    -1.7042 N.am    
  48 C48          -19.8938     4.8109    -2.6841 C.3     
  49 C49          -20.3330     3.4576    -3.2468 C.3     
  50 C50          -19.1781     2.8326    -4.0319 C.3     
  51 C51          -19.6172     1.4793    -4.5946 C.3     
  52 N52          -18.5114     0.8809    -5.3464 N.pl3   
  53 C53          -18.6727    -0.3449    -5.9475 C.2     
  54 N54          -19.8096    -0.9747    -5.8486 N.2     
  55 N55          -17.6350    -0.9065    -6.6531 N.pl3   
  56 C56          -24.5766     6.0932    -2.8332 C.2     
  57 O57          -24.5291     5.3846    -3.8164 O.2     
  58 N58          -22.1739     5.7690    -2.7284 N.am    
  59 C59          -23.3137     6.4211    -2.0790 C.3     
  60 C60          -23.1006     7.9361    -2.0755 C.3     
  61 C61          -21.8891     8.2787    -1.2061 C.3     
  62 C62          -21.6760     9.7938    -1.2026 C.3     
  63 C63          -20.4645    10.1364    -0.3332 C.3     
  64 N64          -20.2598    11.5910    -0.3299 N.3     
  65 C65          -28.0081     7.3508    -2.9118 C.2     
  66 O66          -27.7374     8.2953    -2.2008 O.2     
  67 N67          -25.7587     6.5873    -2.4151 N.am    
  68 C68          -26.9864     6.2686    -3.1483 C.3     
  69 C69          -27.5397     4.9289    -2.6584 C.3     
  70 C70          -31.5994     7.7579    -3.4593 C.2     
  71 O71          -31.7418     6.5924    -3.7633 O.2     
  72 N72          -29.2226     7.2690    -3.4903 N.am    
  73 C73          -30.2158     8.3211    -3.2604 C.3     
  74 C74          -29.9843     9.4659    -4.2487 C.3     
  75 C75          -28.6300    10.1187    -3.9647 C.3     
  76 S76          -28.3555    11.4761    -5.1364 S.3     
  77 C77          -26.7289    12.1137    -4.6483 C.3     
  78 C78          -34.9697     9.1137    -3.8660 C.2     
  79 O79          -34.5608    10.2516    -3.9610 O.2     
  80 N80          -32.6786     8.5493    -3.2995 N.am    
  81 C81          -34.0236     8.0017    -3.4929 C.3     
  82 C82          -34.4973     7.3427    -2.1959 C.3     
  83 C83          -33.6234     6.1541    -1.8881 C.ar    
  84 C84          -32.4854     6.3134    -1.1197 C.ar    
  85 C85          -31.6838     5.2232    -0.8375 C.ar    
  86 C86          -32.0205     3.9735    -1.3232 C.ar    
  87 C87          -33.1590     3.8140    -2.0908 C.ar    
  88 C88          -33.9629     4.9035    -2.3695 C.ar    
  89 C89          -37.6976    10.5937    -3.2054 C.2     
  90 O90          -37.3288    10.2071    -2.1217 O.2     
  91 N91          -36.2703     8.8438    -4.0941 N.am    
  92 C92          -37.1902     9.9248    -4.4568 C.3     
  93 C93          -38.3704     9.3484    -5.2415 C.3     
  94 C94          -39.2660    10.4899    -5.7273 C.3     
  95 C95          -40.3759     9.9245    -6.6158 C.3     
  96 C96          -39.1782     8.4163    -4.3362 C.3     
  97 O97          -38.5594    11.6190    -3.2946 O.3     
  98 C98            3.4892    -0.1886    -1.1113 C.2     
  99 O99            3.8480     0.9348    -0.8280 O.2     
 100 C100          21.6109    -4.5906    -2.9596 C.3     
 101 C101          20.5724    -3.5147    -2.6360 C.3     
 102 C102          19.1682    -4.1132    -2.7411 C.3     
 103 C103          18.1297    -3.0372    -2.4175 C.3     
 104 C104          16.7255    -3.6357    -2.5226 C.3     
 105 C105          15.6870    -2.5597    -2.1990 C.3     
 106 C106          14.2829    -3.1582    -2.3041 C.3     
 107 C107          13.2443    -2.0823    -1.9805 C.3     
 108 C108          11.8402    -2.6808    -2.0856 C.3     
 109 C109          10.8017    -1.6048    -1.7620 C.3     
 110 C110           9.3975    -2.2033    -1.8671 C.3     
 111 C111           8.3590    -1.1273    -1.5435 C.3     
 112 C112           6.9548    -1.7258    -1.6485 C.3     
 113 C113           5.9163    -0.6499    -1.3250 C.3     
 114 C114           4.5121    -1.2483    -1.4300 C.3     
 115 H115           1.8888    -1.3876    -1.3677 H       
 116 H116           1.2791     1.3648    -1.5385 H       
 117 H117           1.3441     0.9104     0.1813 H       
 118 H118          -1.1690     1.6540    -0.4542 H       
 119 H119          -2.6459    -0.5864    -1.6062 H       
 120 H120          -3.9614    -1.0276     0.4107 H       
 121 H121          -2.2355    -1.2585     0.7796 H       
 122 H122          -3.3213     0.1005     2.4166 H       
 123 H123          -5.2284     0.0369    -1.1537 H       
 124 H124          -5.5820     2.9328    -1.0247 H       
 125 H125          -6.6450     3.0617    -3.2615 H       
 126 H126          -3.8482     1.8546    -3.4194 H       
 127 H127          -4.5953     2.9769    -4.5815 H       
 128 H128          -4.1887     3.5350    -2.9410 H       
 129 H129          -7.1992     0.7463    -3.4546 H       
 130 H130          -7.9419     3.4838    -0.7974 H       
 131 H131          -9.6746     1.0787    -0.6345 H       
 132 H132          -9.6351     3.4765     1.2532 H       
 133 H133         -10.8417     2.1683     1.2860 H       
 134 H134          -8.3461     1.0680     3.7192 H       
 135 H135         -12.1746     2.0750    -0.4926 H       
 136 H136         -12.4114     4.4976    -2.1059 H       
 137 H137         -13.2849     1.7621    -3.1371 H       
 138 H138         -13.7547     3.3151    -3.8692 H       
 139 H139         -11.3649     3.8652    -4.2360 H       
 140 H140         -10.8950     2.3123    -3.5039 H       
 141 H141         -12.1533     1.1016    -5.2644 H       
 142 H142         -12.6232     2.6545    -5.9965 H       
 143 H143          -9.8081     2.5887    -5.7790 H       
 144 H144         -11.5125     0.6367    -8.8257 H       
 145 H145          -8.5481     2.0516    -7.7270 H       
 146 H146          -9.2770     1.2313    -8.9992 H       
 147 H147         -15.0434     4.6511    -2.6643 H       
 148 H148         -16.6184     3.3718    -0.5643 H       
 149 H149         -16.1628     6.3874    -0.6502 H       
 150 H150         -17.4122     5.5819     0.3288 H       
 151 H151         -14.4228     5.0017     0.5177 H       
 152 H152         -16.2554     6.6213     2.3441 H       
 153 H153         -14.5495     6.2297     2.6682 H       
 154 H154         -14.9756     7.2882     1.3020 H       
 155 H155         -15.9039     3.1146     1.1452 H       
 156 H156         -15.0916     3.7925     2.5766 H       
 157 H157         -16.7974     4.1840     2.2524 H       
 158 H158         -19.0364     4.5456    -0.7599 H       
 159 H159         -19.5289     5.4406    -3.4956 H       
 160 H160         -20.6141     2.7970    -2.4266 H       
 161 H161         -21.1875     3.5992    -3.9085 H       
 162 H162         -18.8969     3.4932    -4.8522 H       
 163 H163         -18.3235     2.6910    -3.3703 H       
 164 H164         -19.8984     0.8188    -3.7744 H       
 165 H165         -20.4718     1.6210    -5.2563 H       
 166 H166         -17.6653     1.3496    -5.4200 H       
 167 H167         -19.9235    -1.8396    -6.2727 H       
 168 H168         -16.7889    -0.4378    -6.7267 H       
 169 H169         -17.7488    -1.7714    -7.0772 H       
 170 H170         -22.2162     5.5442    -3.6710 H       
 171 H171         -23.4003     6.0640    -1.0528 H       
 172 H172         -22.9255     8.2808    -3.0947 H       
 173 H173         -23.9869     8.4268    -1.6732 H       
 174 H174         -22.0642     7.9341    -0.1869 H       
 175 H175         -21.0028     7.7880    -1.6083 H       
 176 H176         -21.5009    10.1384    -2.2218 H       
 177 H177         -22.5623    10.2845    -0.8003 H       
 178 H178         -20.6396     9.7917     0.6860 H       
 179 H179         -19.5782     9.6457    -0.7355 H       
 180 H180         -21.0913    12.0725    -0.0217 H       
 181 H181         -19.4647    11.8430     0.2380 H       
 182 H182         -25.7967     7.1540    -1.6288 H       
 183 H183         -26.7665     6.2031    -4.2139 H       
 184 H184         -28.4531     4.6918    -3.2039 H       
 185 H185         -26.8007     4.1462    -2.8295 H       
 186 H186         -27.7595     4.9944    -1.5928 H       
 187 H187         -29.4390     6.5136    -4.0590 H       
 188 H188         -30.1191     8.6956    -2.2414 H       
 189 H189         -29.9929     9.0749    -5.2661 H       
 190 H190         -30.7755    10.2074    -4.1376 H       
 191 H191         -28.6214    10.5097    -2.9472 H       
 192 H192         -27.8388     9.3773    -4.0757 H       
 193 H193         -25.9852    11.3224    -4.7422 H       
 194 H194         -26.4562    12.9472    -5.2956 H       
 195 H195         -26.7678    12.4548    -3.6138 H       
 196 H196         -32.5647     9.4814    -3.0564 H       
 197 H197         -34.0024     7.2596    -4.2909 H       
 198 H198         -34.4339     8.0615    -1.3789 H       
 199 H199         -35.5301     7.0141    -2.3115 H       
 200 H200         -32.2224     7.2897    -0.7403 H       
 201 H201         -30.7943     5.3478    -0.2377 H       
 202 H202         -31.3938     3.1219    -1.1032 H       
 203 H203         -33.4219     2.8378    -2.4705 H       
 204 H204         -34.8544     4.7783    -2.9661 H       
 205 H205         -36.5974     7.9338    -4.0181 H       
 206 H206         -36.6667    10.6559    -5.0729 H       
 207 H207         -37.9977     8.7887    -6.0994 H       
 208 H208         -39.7093    10.9944    -4.8688 H       
 209 H209         -38.6699    11.2012    -6.2989 H       
 210 H210         -41.0139    10.7377    -6.9619 H       
 211 H211         -39.9326     9.4199    -7.4742 H       
 212 H212         -40.9719     9.2131    -6.0441 H       
 213 H213         -39.5509     8.9761    -3.4784 H       
 214 H214         -40.0190     8.0057    -4.8952 H       
 215 H215         -38.5402     7.6031    -3.9901 H       
 216 H216         -38.8569    12.0159    -2.4646 H       
 217 H217          22.6112    -4.1643    -2.8847 H       
 218 H218          21.5131    -5.4143    -2.2524 H       
 219 H219          21.4481    -4.9599    -3.9722 H       
 220 H220          20.7351    -3.1454    -1.6235 H       
 221 H221          20.6701    -2.6910    -3.3432 H       
 222 H222          19.0055    -4.4824    -3.7536 H       
 223 H223          19.0705    -4.9368    -2.0339 H       
 224 H224          18.2924    -2.6680    -1.4050 H       
 225 H225          18.2274    -2.2135    -3.1247 H       
 226 H226          16.5628    -4.0049    -3.5351 H       
 227 H227          16.6278    -4.4594    -1.8154 H       
 228 H228          15.8498    -2.1905    -1.1864 H       
 229 H229          15.7848    -1.7361    -2.9062 H       
 230 H230          14.1201    -3.5275    -3.3166 H       
 231 H231          14.1851    -3.9819    -1.5969 H       
 232 H232          13.4071    -1.7130    -0.9679 H       
 233 H233          13.3421    -1.2586    -2.6877 H       
 234 H234          11.6774    -3.0500    -3.0981 H       
 235 H235          11.7424    -3.5044    -1.3784 H       
 236 H236          10.9644    -1.2356    -0.7494 H       
 237 H237          10.8994    -0.7811    -2.4692 H       
 238 H238           9.2347    -2.5725    -2.8796 H       
 239 H239           9.2998    -3.0270    -1.1599 H       
 240 H240           8.5217    -0.7581    -0.5309 H       
 241 H241           8.4567    -0.3037    -2.2507 H       
 242 H242           6.7921    -2.0951    -2.6611 H       
 243 H243           6.8571    -2.5495    -0.9414 H       
 244 H244           6.0791    -0.2806    -0.3124 H       
 245 H245           6.0140     0.1738    -2.0322 H       
 246 H246           4.4144    -2.0720    -0.7228 H       
 247 H247           4.3494    -1.6176    -2.4426 H       
@<TRIPOS>BOND
   1    1    2 2
   2    1    4 1
   3    1    7 am
   4    3    4 1
   5    3   98 am
   6    3  115 1
   7    4  116 1
   8    4  117 1
   9    5    6 2
  10    5    8 1
  11    5   13 am
  12    7    8 1
  13    7  118 1
  14    8    9 1
  15    8  119 1
  16    9   10 1
  17    9  120 1
  18    9  121 1
  19   10  122 1
  20   11   12 2
  21   11   14 1
  22   11   20 am
  23   13   14 1
  24   13  123 1
  25   14   15 1
  26   14  124 1
  27   15   16 1
  28   15   17 1
  29   15  125 1
  30   16  126 1
  31   16  127 1
  32   16  128 1
  33   17  129 1
  34   18   19 2
  35   18   21 1
  36   18   28 am
  37   20   21 1
  38   20  130 1
  39   21   22 1
  40   21  131 1
  41   22   23 1
  42   22  132 1
  43   22  133 1
  44   23   24 2
  45   23   25 1
  46   25  134 1
  47   26   27 2
  48   26   29 1
  49   26   39 am
  50   28   29 1
  51   28  135 1
  52   29   30 1
  53   29  136 1
  54   30   31 1
  55   30  137 1
  56   30  138 1
  57   31   32 1
  58   31  139 1
  59   31  140 1
  60   32   33 1
  61   32  141 1
  62   32  142 1
  63   33   34 1
  64   33  143 1
  65   34   35 2
  66   34   36 1
  67   35  144 1
  68   36  145 1
  69   36  146 1
  70   37   38 2
  71   37   40 1
  72   37   47 am
  73   39   40 1
  74   39  147 1
  75   40   41 1
  76   40  148 1
  77   41   42 1
  78   41  149 1
  79   41  150 1
  80   42   43 1
  81   42   44 1
  82   42  151 1
  83   43  152 1
  84   43  153 1
  85   43  154 1
  86   44  155 1
  87   44  156 1
  88   44  157 1
  89   45   46 2
  90   45   48 1
  91   45   58 am
  92   47   48 1
  93   47  158 1
  94   48   49 1
  95   48  159 1
  96   49   50 1
  97   49  160 1
  98   49  161 1
  99   50   51 1
 100   50  162 1
 101   50  163 1
 102   51   52 1
 103   51  164 1
 104   51  165 1
 105   52   53 1
 106   52  166 1
 107   53   54 2
 108   53   55 1
 109   54  167 1
 110   55  168 1
 111   55  169 1
 112   56   57 2
 113   56   59 1
 114   56   67 am
 115   58   59 1
 116   58  170 1
 117   59   60 1
 118   59  171 1
 119   60   61 1
 120   60  172 1
 121   60  173 1
 122   61   62 1
 123   61  174 1
 124   61  175 1
 125   62   63 1
 126   62  176 1
 127   62  177 1
 128   63   64 1
 129   63  178 1
 130   63  179 1
 131   64  180 1
 132   64  181 1
 133   65   66 2
 134   65   68 1
 135   65   72 am
 136   67   68 1
 137   67  182 1
 138   68   69 1
 139   68  183 1
 140   69  184 1
 141   69  185 1
 142   69  186 1
 143   70   71 2
 144   70   73 1
 145   70   80 am
 146   72   73 1
 147   72  187 1
 148   73   74 1
 149   73  188 1
 150   74   75 1
 151   74  189 1
 152   74  190 1
 153   75   76 1
 154   75  191 1
 155   75  192 1
 156   76   77 1
 157   77  193 1
 158   77  194 1
 159   77  195 1
 160   78   79 2
 161   78   81 1
 162   78   91 am
 163   80   81 1
 164   80  196 1
 165   81   82 1
 166   81  197 1
 167   82   83 1
 168   82  198 1
 169   82  199 1
 170   83   84 ar
 171   83   88 ar
 172   84   85 ar
 173   84  200 1
 174   85   86 ar
 175   85  201 1
 176   86   87 ar
 177   86  202 1
 178   87   88 ar
 179   87  203 1
 180   88  204 1
 181   89   90 2
 182   89   92 1
 183   89   97 1
 184   91   92 1
 185   91  205 1
 186   92   93 1
 187   92  206 1
 188   93   94 1
 189   93   96 1
 190   93  207 1
 191   94   95 1
 192   94  208 1
 193   94  209 1
 194   95  210 1
 195   95  211 1
 196   95  212 1
 197   96  213 1
 198   96  214 1
 199   96  215 1
 200   97  216 1
 201   98   99 2
 202   98  114 1
 203  100  101 1
 204  100  217 1
 205  100  218 1
 206  100  219 1
 207  101  102 1
 208  101  220 1
 209  101  221 1
 210  102  103 1
 211  102  222 1
 212  102  223 1
 213  103  104 1
 214  103  224 1
 215  103  225 1
 216  104  105 1
 217  104  226 1
 218  104  227 1
 219  105  106 1
 220  105  228 1
 221  105  229 1
 222  106  107 1
 223  106  230 1
 224  106  231 1
 225  107  108 1
 226  107  232 1
 227  107  233 1
 228  108  109 1
 229  108  234 1
 230  108  235 1
 231  109  110 1
 232  109  236 1
 233  109  237 1
 234  110  111 1
 235  110  238 1
 236  110  239 1
 237  111  112 1
 238  111  240 1
 239  111  241 1
 240  112  113 1
 241  112  242 1
 242  112  243 1
 243  113  114 1
 244  113  244 1
 245  113  245 1
 246  114  246 1
 247  114  247 1

#	End of record

