#	Name: ASD06620017
#	Creating user name:	WinNT
#	Creation time:	15. 06. 2019 21:07

#	Modifying user name:	WinNT
#	Modification time:	15. 06. 2019 21:07

#	Program:	/corina/corina34_cracker 3.40 0067  02.08.2006

@<TRIPOS>MOLECULE
ASD06620017
  57   62    0    0    0
SMALL
NO_CHARGES


@<TRIPOS>ATOM
   1 C1            -0.0093     1.3656    -0.0116 C.ar    
   2 C2             0.0060    -0.0181    -0.0259 C.ar    
   3 C3             1.2371    -0.6842    -0.0522 C.ar    
   4 C4             2.4015     0.0733    -0.0628 C.ar    
   5 C5             2.2997     1.4500    -0.0471 C.ar    
   6 N6             1.1217     2.0461    -0.0224 N.ar    
   7 C7            -0.3762    -2.2048    -0.0423 C.2     
   8 N8            -0.9795    -1.0005    -0.0204 N.am    
   9 N9             0.9610    -2.0422    -0.0617 N.am    
  10 O10           -0.9517    -3.2768    -0.0435 O.2     
  11 C11            1.9547    -3.1184    -0.0891 C.3     
  12 C12            1.9546    -4.1099     1.0762 C.3     
  13 C13            1.4448    -4.5456    -0.2990 C.3     
  14 C14           -2.4253    -0.7654     0.0052 C.3     
  15 C15           -3.7647    -1.2337    -3.3385 C.2     
  16 C16           -4.2944    -1.8971    -4.4582 C.2     
  17 C17           -4.5969    -1.1808    -5.5801 C.2     
  18 C18           -4.3749     0.2045    -5.5986 C.2     
  19 C19           -3.8647     0.8243    -4.5106 C.2     
  20 N20           -3.5603     0.1173    -3.3888 N.pl3   
  21 N21           -3.3832    -1.6781    -2.1414 N.2     
  22 C22           -2.9438    -0.6699    -1.4065 C.2     
  23 C23           -3.0385     0.4917    -2.1630 C.2     
  24 C24           -2.6727     1.7929    -1.7624 C.2     
  25 C25           -1.8708     2.5503    -2.5597 C.2     
  26 C26           -1.5049     3.8519    -2.1590 C.2     
  27 O27           -1.9814     4.3342    -1.1465 O.2     
  28 O28            1.7782     5.6126    -3.7101 O.3     
  29 C29            1.2037     6.1207    -2.5036 C.3     
  30 C30           -0.3198     5.9626    -2.5643 C.3     
  31 N31           -0.6282     4.5625    -2.8959 N.am    
  32 C32            0.0492     3.9609    -4.0554 C.3     
  33 C33            1.5548     4.2166    -3.9221 C.3     
  34 Cl34          -5.2517    -1.9790    -6.9757 Cl      
  35 H35           -0.9523     1.8919     0.0041 H       
  36 H36            3.3690    -0.4062    -0.0826 H       
  37 H37            3.1982     2.0493    -0.0548 H       
  38 H38            2.9177    -2.8580    -0.5283 H       
  39 H39            2.9175    -4.5020     1.4034 H       
  40 H40            1.2152    -3.9614     1.8632 H       
  41 H41            0.3700    -4.6838    -0.4167 H       
  42 H42            2.0723    -5.2244    -0.8765 H       
  43 H43           -2.9185    -1.5908     0.5184 H       
  44 H44           -2.6326     0.1660     0.5322 H       
  45 H45           -4.4603    -2.9640    -4.4316 H       
  46 H46           -4.6118     0.7767    -6.4834 H       
  47 H47           -3.6966     1.8909    -4.5325 H       
  48 H48           -3.0289     2.1888    -0.8228 H       
  49 H49           -1.5147     2.1544    -3.4993 H       
  50 H50            1.5939     5.5637    -1.6518 H       
  51 H51            1.4563     7.1756    -2.3962 H       
  52 H52           -0.7540     6.2150    -1.5969 H       
  53 H53           -0.7268     6.6200    -3.3326 H       
  54 H54           -0.1406     2.8877    -4.0754 H       
  55 H55           -0.3207     4.4167    -4.9738 H       
  56 H56            2.0598     3.9015    -4.8351 H       
  57 H57            1.9462     3.6526    -3.0754 H       
@<TRIPOS>BOND
   1    1    2 ar
   2    1    6 ar
   3    1   35 1
   4    2    3 ar
   5    2    8 1
   6    3    4 ar
   7    3    9 1
   8    4    5 ar
   9    4   36 1
  10    5    6 ar
  11    5   37 1
  12    7    8 am
  13    7    9 am
  14    7   10 2
  15    8   14 1
  16    9   11 1
  17   11   12 1
  18   11   13 1
  19   11   38 1
  20   12   13 1
  21   12   39 1
  22   12   40 1
  23   13   41 1
  24   13   42 1
  25   14   22 1
  26   14   43 1
  27   14   44 1
  28   15   16 1
  29   15   20 1
  30   15   21 2
  31   16   17 2
  32   16   45 1
  33   17   18 1
  34   17   34 1
  35   18   19 2
  36   18   46 1
  37   19   20 1
  38   19   47 1
  39   20   23 1
  40   21   22 1
  41   22   23 2
  42   23   24 1
  43   24   25 2
  44   24   48 1
  45   25   26 1
  46   25   49 1
  47   26   27 2
  48   26   31 am
  49   28   29 1
  50   28   33 1
  51   29   30 1
  52   29   50 1
  53   29   51 1
  54   30   31 1
  55   30   52 1
  56   30   53 1
  57   31   32 1
  58   32   33 1
  59   32   54 1
  60   32   55 1
  61   33   56 1
  62   33   57 1

#	End of record

