#	Name: ASD01915001
#	Creating user name:	WinNT
#	Creation time:	15. 06. 2019 20:04

#	Modifying user name:	WinNT
#	Modification time:	15. 06. 2019 20:04

#	Program:	/corina/corina34_cracker 3.40 0067  02.08.2006

@<TRIPOS>MOLECULE
ASD01915001
  50   53    0    0    0
SMALL
NO_CHARGES


@<TRIPOS>ATOM
   1 C1            -0.2252     1.4560    -1.1227 C.ar    
   2 C2            -0.2364     0.0834    -1.2780 C.ar    
   3 C3             0.9368    -0.6374    -1.1517 C.ar    
   4 C4             2.1238     0.0132    -0.8698 C.ar    
   5 C5             2.1402     1.3857    -0.7132 C.ar    
   6 C6             0.9645     2.1112    -0.8399 C.ar    
   7 O7             0.9782     3.4616    -0.6871 O.3     
   8 C8             2.2388     4.0689    -0.3971 C.3     
   9 C9             2.0594     5.5591    -0.2628 C.2     
  10 C10            0.8522     6.2590    -0.3922 C.2     
  11 N11            3.0054     6.4300     0.0015 N.2     
  12 C12            1.1793     7.5701    -0.1933 C.2     
  13 C13            0.3624     8.7931    -0.1945 C.2     
  14 N14            2.5330     7.6134     0.0589 N.pl3   
  15 C15            3.2103     8.8818     0.3537 C.3     
  16 C16            2.4858    10.0188    -0.3654 C.3     
  17 N17            1.0381     9.9677    -0.1750 N.am    
  18 O18           -0.8532     8.7526    -0.2125 O.2     
  19 C19            0.3340    11.1582     0.0375 C.ar    
  20 C20           -0.9504    12.5823     1.4774 C.ar    
  21 C21           -0.2564    11.4065     1.2696 C.ar    
  22 C22            0.2297    12.0958    -0.9817 C.ar    
  23 C23           -0.4652    13.2703    -0.7698 C.ar    
  24 C24           -1.0573    13.5137     0.4582 C.ar    
  25 F25           -1.7367    14.6633     0.6634 F       
  26 C26            3.1873     9.1347     1.8625 C.3     
  27 C27            0.9216    -2.1348    -1.3211 C.3     
  28 C28            1.1651    -2.4843    -2.7906 C.3     
  29 H29           -1.1410     2.0191    -1.2259 H       
  30 H30           -1.1623    -0.4272    -1.4979 H       
  31 H31            3.0388    -0.5520    -0.7716 H       
  32 H32            3.0675     1.8934    -0.4923 H       
  33 H33            2.6307     3.6646     0.5362 H       
  34 H34            2.9382     3.8585    -1.2062 H       
  35 H35           -0.1250     5.8503    -0.6034 H       
  36 H36            4.2429     8.8320     0.0080 H       
  37 H37            2.8575    10.9701     0.0153 H       
  38 H38            2.7052     9.9581    -1.4314 H       
  39 H39           -1.4101    12.7756     2.4354 H       
  40 H40           -0.1733    10.6804     2.0648 H       
  41 H41            0.6919    11.9067    -1.9393 H       
  42 H42           -0.5466    13.9996    -1.5621 H       
  43 H43            3.7008     8.3213     2.3751 H       
  44 H44            3.6904    10.0767     2.0807 H       
  45 H45            2.1543     9.1863     2.2065 H       
  46 H46            1.7060    -2.5778    -0.7074 H       
  47 H47           -0.0473    -2.5258    -1.0103 H       
  48 H48            1.1541    -3.5674    -2.9131 H       
  49 H49            0.3807    -2.0413    -3.4042 H       
  50 H50            2.1339    -2.0933    -3.1013 H       
@<TRIPOS>BOND
   1    1    2 ar
   2    1    6 ar
   3    1   29 1
   4    2    3 ar
   5    2   30 1
   6    3    4 ar
   7    3   27 1
   8    4    5 ar
   9    4   31 1
  10    5    6 ar
  11    5   32 1
  12    6    7 1
  13    7    8 1
  14    8    9 1
  15    8   33 1
  16    8   34 1
  17    9   11 2
  18    9   10 1
  19   10   12 2
  20   10   35 1
  21   11   14 1
  22   12   14 1
  23   12   13 1
  24   13   17 am
  25   13   18 2
  26   14   15 1
  27   15   16 1
  28   15   26 1
  29   15   36 1
  30   16   17 1
  31   16   37 1
  32   16   38 1
  33   17   19 1
  34   19   22 ar
  35   19   21 ar
  36   20   21 ar
  37   20   24 ar
  38   20   39 1
  39   21   40 1
  40   22   23 ar
  41   22   41 1
  42   23   24 ar
  43   23   42 1
  44   24   25 1
  45   26   43 1
  46   26   44 1
  47   26   45 1
  48   27   28 1
  49   27   46 1
  50   27   47 1
  51   28   48 1
  52   28   49 1
  53   28   50 1

#	End of record

