#	Name: ASD01903267
#	Creating user name:	WinNT
#	Creation time:	15. 06. 2019 19:54

#	Modifying user name:	WinNT
#	Modification time:	15. 06. 2019 19:54

#	Program:	/corina/corina34_cracker 3.40 0067  02.08.2006

@<TRIPOS>MOLECULE
ASD01903267
  39   42    0    0    0
SMALL
NO_CHARGES


@<TRIPOS>ATOM
   1 C1             0.0316     1.3107     0.0771 C.ar    
   2 C2            -1.0986     1.6193    -0.6626 C.ar    
   3 C3            -1.0979     2.7496    -1.4653 C.ar    
   4 C4             0.0427     3.5359    -1.4986 C.ar    
   5 C5             1.1430     3.1651    -0.7285 C.ar    
   6 N6             1.1011     2.0746     0.0269 N.ar    
   7 C7             2.3700     3.9946    -0.7534 C.2     
   8 O8             2.4140     4.9940    -1.4436 O.2     
   9 N9             3.4376     3.6411    -0.0106 N.am    
  10 C10            4.6295     4.3682    -0.1080 C.ar    
  11 C11            4.5905     5.7426    -0.3032 C.ar    
  12 C12            5.7663     6.4603    -0.3988 C.ar    
  13 C13            6.9876     5.8086    -0.3002 C.ar    
  14 C14            7.0275     4.4332    -0.1049 C.ar    
  15 C15            5.8516     3.7160    -0.0035 C.ar    
  16 N16            8.1823     6.5376    -0.4033 N.am    
  17 C17            8.8297     7.0889     0.6390 C.2     
  18 C18           10.0393     7.7692     0.1360 C.ar    
  19 C19           10.0414     7.5712    -1.2605 C.ar    
  20 C20            8.8338     6.7721    -1.5567 C.2     
  21 O21            8.4776     7.0361     1.8004 O.2     
  22 O22            8.4848     6.3958    -2.6575 O.2     
  23 C23           11.0647     8.4913     0.7315 C.ar    
  24 C24           12.0850     9.0130    -0.0551 C.ar    
  25 C25           12.0839     8.8172    -1.4220 C.ar    
  26 C26           11.0656     8.0978    -2.0297 C.ar    
  27 F27           11.0705     8.6863     2.0684 F       
  28 Cl28           8.5551     3.6178     0.0184 Cl      
  29 H29            0.0328     0.4333     0.7069 H       
  30 H30           -1.9716     0.9852    -0.6146 H       
  31 H31           -1.9664     3.0112    -2.0515 H       
  32 H32            0.0784     4.4234    -2.1131 H       
  33 H33            3.3799     2.8827     0.5914 H       
  34 H34            3.6404     6.2502    -0.3807 H       
  35 H35            5.7355     7.5292    -0.5506 H       
  36 H36            5.8821     2.6472     0.1483 H       
  37 H37           12.8836     9.5754     0.4057 H       
  38 H38           12.8822     9.2275    -2.0226 H       
  39 H39           11.0714     7.9487    -3.0993 H       
@<TRIPOS>BOND
   1    1    2 ar
   2    1    6 ar
   3    1   29 1
   4    2    3 ar
   5    2   30 1
   6    3    4 ar
   7    3   31 1
   8    4    5 ar
   9    4   32 1
  10    5    6 ar
  11    5    7 1
  12    7    8 2
  13    7    9 am
  14    9   10 1
  15    9   33 1
  16   10   11 ar
  17   10   15 ar
  18   11   12 ar
  19   11   34 1
  20   12   13 ar
  21   12   35 1
  22   13   14 ar
  23   13   16 1
  24   14   15 ar
  25   14   28 1
  26   15   36 1
  27   16   17 am
  28   16   20 am
  29   17   18 1
  30   17   21 2
  31   18   19 ar
  32   18   23 ar
  33   19   20 1
  34   19   26 ar
  35   20   22 2
  36   23   24 ar
  37   23   27 1
  38   24   25 ar
  39   24   37 1
  40   25   26 ar
  41   25   38 1
  42   26   39 1

#	End of record

