#	Name: ASD05143073
#	Creating user name:	WinNT
#	Creation time:	15. 06. 2019 20:57

#	Modifying user name:	WinNT
#	Modification time:	15. 06. 2019 20:57

#	Program:	/corina/corina34_cracker 3.40 0067  02.08.2006

@<TRIPOS>MOLECULE
ASD05143073
 142  145    0    0    0
SMALL
NO_CHARGES


@<TRIPOS>ATOM
   1 C1            -2.1152     5.3830     7.5225 C.2     
   2 C2            -1.6310     4.6432     8.7428 C.3     
   3 N3            -1.2264     5.9203     6.6635 N.am    
   4 O4            -3.3045     5.4907     7.3108 O.2     
   5 C5            -1.6971     6.6395     5.4771 C.3     
   6 C6            -2.5296     5.6967     4.6060 C.3     
   7 C7            -2.5452     7.8102     5.9030 C.2     
   8 C8            -1.6372     4.5748     4.0716 C.3     
   9 C9            -2.4698     3.6320     3.2005 C.3     
  10 N10           -1.6152     2.5577     2.6887 N.pl3   
  11 C11           -2.1470     1.5841     1.8766 C.2     
  12 N12           -1.3451     0.5759     1.3964 N.pl3   
  13 N13           -3.4115     1.6169     1.5620 N.2     
  14 O14           -3.0390     7.8301     7.0105 O.2     
  15 N15           -2.7548     8.8350     5.0531 N.am    
  16 C16           -3.5793     9.9730     5.4672 C.3     
  17 C17           -2.6767    11.1637     5.7966 C.3     
  18 C18           -1.5214    10.6983     6.6851 C.3     
  19 C19           -0.3795    10.2297     5.8207 C.2     
  20 N20            0.8873    10.6418     6.1241 N.am    
  21 C21            1.9515    10.1314     5.2299 C.3     
  22 C22            2.1028    11.0931     4.0497 C.3     
  23 C23            2.7674    10.3638     2.8803 C.3     
  24 C24            3.7265    11.3161     2.1633 C.3     
  25 N25            3.6764    11.0405     0.7134 N.am    
  26 C26            5.1286    11.0974     2.6707 C.2     
  27 N27            5.5150    11.6446     3.8402 N.am    
  28 O28            5.9091    10.4289     2.0267 O.2     
  29 C29            2.8509    11.8293    -0.0274 C.2     
  30 O30            2.2065    12.7106     0.5009 O.2     
  31 C31            2.7481    11.5944    -1.5124 C.3     
  32 N32            1.5339    12.2776    -2.0147 N.am    
  33 C33            3.9846    12.1652    -2.2097 C.3     
  34 C34            0.4811    11.4583    -2.3096 C.2     
  35 O35            0.5726    10.2578    -2.1635 O.2     
  36 C36           -0.7961    12.0747    -2.8194 C.3     
  37 N37           -1.9233    11.1813    -2.4855 N.am    
  38 C38           -1.0082    13.4372    -2.1563 C.3     
  39 C39           -3.0284    11.7689    -1.9498 C.2     
  40 O40           -3.0581    12.9666    -1.7613 O.2     
  41 C41           -4.2145    10.9097    -1.5949 C.3     
  42 C42            3.9379    11.8212    -3.6762 C.2     
  43 C43            3.2406    12.5694    -4.7250 C.ar    
  44 C44            3.4797    11.8731    -5.9236 C.ar    
  45 N45            4.2645    10.7856    -5.6120 N.pl3   
  46 C46            4.5321    10.7743    -4.2701 C.2     
  47 C47            2.4638    13.7297    -4.7362 C.ar    
  48 C48            1.9392    14.1832    -5.9134 C.ar    
  49 C49            2.1718    13.4993    -7.0990 C.ar    
  50 C50            2.9359    12.3532    -7.1107 C.ar    
  51 N51           -4.8014    11.4097    -0.3308 N.am    
  52 C52           -3.7615     9.4597    -1.4123 C.3     
  53 C53           -4.9602     8.5906    -1.1317 C.ar    
  54 C54           -5.9883     8.5135    -2.0519 C.ar    
  55 C55           -7.0887     7.7151    -1.7943 C.ar    
  56 C56           -7.1589     6.9944    -0.6157 C.ar    
  57 C57           -6.1298     7.0722     0.3041 C.ar    
  58 C58           -5.0285     7.8659     0.0439 C.ar    
  59 C59           -4.5165    10.3480     4.3480 C.2     
  60 O60           -5.7149    10.2160     4.4790 O.2     
  61 C61           -1.0196    13.2680    -0.6357 C.3     
  62 C62           -1.3783    14.6016     0.0231 C.3     
  63 N63           -1.3892    14.4396     1.4791 N.pl3   
  64 C64           -1.6873    15.5109     2.2877 C.2     
  65 N65           -1.9750    16.7341     1.7299 N.pl3   
  66 N66           -1.6970    15.3668     3.5830 N.2     
  67 N67           -3.9984    10.8366     3.1878 N.am    
  68 C68           -4.9651    11.1869     2.1281 C.3     
  69 C69           -4.4092    10.7477     0.7980 C.2     
  70 O70           -3.6277     9.8227     0.7309 O.2     
  71 O71           -0.5812     9.4998     4.8733 O.2     
  72 N72           -5.5996    13.1455     3.4542 N.3     
  73 C73           -5.1868    12.7007     2.1164 C.3     
  74 Cl74          -8.3808     7.6183    -2.9496 Cl      
  75 H75           -0.5412     4.6465     8.7612 H       
  76 H76           -2.0110     5.1331     9.6393 H       
  77 H77           -1.9907     3.6147     8.7107 H       
  78 H78           -0.2751     5.8307     6.8307 H       
  79 H79           -0.8407     6.9997     4.9070 H       
  80 H80           -3.3350     5.2676     5.2021 H       
  81 H81           -2.9532     6.2535     3.7701 H       
  82 H82           -0.8318     5.0039     3.4755 H       
  83 H83           -1.2136     4.0180     4.9075 H       
  84 H84           -3.2752     3.2029     3.7965 H       
  85 H85           -2.8933     4.1887     2.3646 H       
  86 H86           -0.6742     2.5333     2.9228 H       
  87 H87           -0.4041     0.5515     1.6305 H       
  88 H88           -1.7203    -0.1110     0.8234 H       
  89 H89           -3.7867     0.9300     0.9891 H       
  90 H90           -2.3598     8.8191     4.1674 H       
  91 H91           -4.1579     9.7005     6.3498 H       
  92 H92           -2.2783    11.5839     4.8731 H       
  93 H93           -3.2553    11.9238     6.3215 H       
  94 H94           -1.1877    11.5264     7.3103 H       
  95 H95           -1.8581     9.8777     7.3185 H       
  96 H96            1.0764    11.2283     6.8732 H       
  97 H97            2.8923    10.0732     5.7773 H       
  98 H98            1.6775     9.1423     4.8629 H       
  99 H99            1.1196    11.4504     3.7436 H       
 100 H100           2.7207    11.9401     4.3480 H       
 101 H101           3.3223     9.5044     3.2563 H       
 102 H102           2.0024    10.0248     2.1817 H       
 103 H103           3.4252    12.3469     2.3498 H       
 104 H104           4.2041    10.3336     0.3099 H       
 105 H105           4.8907    12.1793     4.3552 H       
 106 H106           6.4175    11.5038     4.1668 H       
 107 H107           2.6744    10.5249    -1.7095 H       
 108 H108           1.4894    13.2401    -2.1268 H       
 109 H109           4.0010    13.2486    -2.0910 H       
 110 H110           4.8828    11.7372    -1.7646 H       
 111 H111          -0.7359    12.1982    -3.9007 H       
 112 H112          -1.8785    10.2247    -2.6396 H       
 113 H113          -0.1990    14.1097    -2.4410 H       
 114 H114          -1.9602    13.8558    -2.4824 H       
 115 H115          -4.9576    10.9656    -2.3904 H       
 116 H116           4.5834    10.1276    -6.2494 H       
 117 H117           5.1269    10.0291    -3.7628 H       
 118 H118           2.2781    14.2664    -3.8176 H       
 119 H119           1.3384    15.0806    -5.9216 H       
 120 H120           1.7500    13.8700    -8.0215 H       
 121 H121           3.1113    11.8285    -8.0383 H       
 122 H122          -5.4210    12.1556    -0.3059 H       
 123 H123          -3.2682     9.1159    -2.3214 H       
 124 H124          -3.0651     9.3992    -0.5759 H       
 125 H125          -5.9331     9.0767    -2.9718 H       
 126 H126          -8.0176     6.3713    -0.4139 H       
 127 H127          -6.1845     6.5096     1.2243 H       
 128 H128          -4.2246     7.9261     0.7626 H       
 129 H129          -1.7585    12.5159    -0.3593 H       
 130 H130          -0.0333    12.9497    -0.2981 H       
 131 H131          -0.6394    15.3537    -0.2533 H       
 132 H132          -2.3646    14.9199    -0.3145 H       
 133 H133          -1.1862    13.5766     1.8726 H       
 134 H134          -1.9678    16.8413     0.7658 H       
 135 H135          -2.1853    17.4899     2.3003 H       
 136 H136          -1.9073    16.1226     4.1535 H       
 137 H137          -3.0430    10.9492     3.0637 H       
 138 H138          -5.9113    10.6787     2.3142 H       
 139 H139          -4.9239    12.8703     4.1512 H       
 140 H140          -5.7524    14.1427     3.4726 H       
 141 H141          -4.2599    13.2015     1.8369 H       
 142 H142          -5.9654    12.9484     1.3949 H       
@<TRIPOS>BOND
   1    1    2 1
   2    1    3 am
   3    1    4 2
   4    2   75 1
   5    2   76 1
   6    2   77 1
   7    3    5 1
   8    3   78 1
   9    5    6 1
  10    5    7 1
  11    5   79 1
  12    6    8 1
  13    6   80 1
  14    6   81 1
  15    7   14 2
  16    7   15 am
  17    8    9 1
  18    8   82 1
  19    8   83 1
  20    9   10 1
  21    9   84 1
  22    9   85 1
  23   10   11 1
  24   10   86 1
  25   11   12 1
  26   11   13 2
  27   12   87 1
  28   12   88 1
  29   13   89 1
  30   15   16 1
  31   15   90 1
  32   16   17 1
  33   16   59 1
  34   16   91 1
  35   17   18 1
  36   17   92 1
  37   17   93 1
  38   18   19 1
  39   18   94 1
  40   18   95 1
  41   19   20 am
  42   19   71 2
  43   20   21 1
  44   20   96 1
  45   21   22 1
  46   21   97 1
  47   21   98 1
  48   22   23 1
  49   22   99 1
  50   22  100 1
  51   23   24 1
  52   23  101 1
  53   23  102 1
  54   24   25 1
  55   24   26 1
  56   24  103 1
  57   25   29 am
  58   25  104 1
  59   26   27 am
  60   26   28 2
  61   27  105 1
  62   27  106 1
  63   29   30 2
  64   29   31 1
  65   31   32 1
  66   31   33 1
  67   31  107 1
  68   32   34 am
  69   32  108 1
  70   33   42 1
  71   33  109 1
  72   33  110 1
  73   34   35 2
  74   34   36 1
  75   36   37 1
  76   36   38 1
  77   36  111 1
  78   37   39 am
  79   37  112 1
  80   38   61 1
  81   38  113 1
  82   38  114 1
  83   39   40 2
  84   39   41 1
  85   41   51 1
  86   41   52 1
  87   41  115 1
  88   42   43 1
  89   42   46 2
  90   43   44 ar
  91   43   47 ar
  92   44   45 1
  93   44   50 ar
  94   45   46 1
  95   45  116 1
  96   46  117 1
  97   47   48 ar
  98   47  118 1
  99   48   49 ar
 100   48  119 1
 101   49   50 ar
 102   49  120 1
 103   50  121 1
 104   51   69 am
 105   51  122 1
 106   52   53 1
 107   52  123 1
 108   52  124 1
 109   53   54 ar
 110   53   58 ar
 111   54   55 ar
 112   54  125 1
 113   55   56 ar
 114   55   74 1
 115   56   57 ar
 116   56  126 1
 117   57   58 ar
 118   57  127 1
 119   58  128 1
 120   59   60 2
 121   59   67 am
 122   61   62 1
 123   61  129 1
 124   61  130 1
 125   62   63 1
 126   62  131 1
 127   62  132 1
 128   63   64 1
 129   63  133 1
 130   64   65 1
 131   64   66 2
 132   65  134 1
 133   65  135 1
 134   66  136 1
 135   67   68 1
 136   67  137 1
 137   68   69 1
 138   68   73 1
 139   68  138 1
 140   69   70 2
 141   72   73 1
 142   72  139 1
 143   72  140 1
 144   73  141 1
 145   73  142 1

#	End of record

