#	Name: ASD03080233
#	Creating user name:	WinNT
#	Creation time:	15. 06. 2019 20:26

#	Modifying user name:	WinNT
#	Modification time:	15. 06. 2019 20:26

#	Program:	/corina/corina34_cracker 3.40 0067  02.08.2006

@<TRIPOS>MOLECULE
ASD03080233
  47   50    0    0    0
SMALL
NO_CHARGES


@<TRIPOS>ATOM
   1 O1            -0.1082     1.1500     0.1794 O.3     
   2 N2            -0.1609    -0.2627     0.0994 N.2     
   3 C3            -1.3111    -0.8677     0.0160 C.2     
   4 C4            -1.5626    -2.3297    -0.0689 C.2     
   5 O5            -0.7176    -3.2034    -0.0731 O.2     
   6 N6            -2.8925    -2.5124    -0.1396 N.am    
   7 C7            -3.5756    -1.2999    -0.1101 C.ar    
   8 C8            -2.6585    -0.2500    -0.0088 C.ar    
   9 C9            -3.1049     1.0650     0.0429 C.ar    
  10 C10           -4.4572     1.3247     0.0009 C.ar    
  11 C11           -5.3778     0.2850    -0.0937 C.ar    
  12 C12           -6.8396     0.6522    -0.1194 C.3     
  13 C13           -7.6758    -0.5068    -0.6572 C.3     
  14 C14           -7.3050    -1.7736     0.1228 C.3     
  15 C15           -5.8888    -2.1856    -0.2740 C.3     
  16 C16           -4.9431    -1.0186    -0.1609 C.ar    
  17 S17           -5.0275     2.9906     0.0680 S.o2    
  18 O18           -3.8750     3.8023     0.2475 O.2     
  19 O19           -5.9290     3.1502    -1.0188 O.2     
  20 N20           -5.9280     3.1451     1.4491 N.am    
  21 O21           -5.3179     2.9723     2.7152 O.3     
  22 C22           -6.2120     3.1340     3.8181 C.3     
  23 C23           -5.4604     2.9294     5.1082 C.ar    
  24 C24           -5.3670     1.6657     5.6608 C.ar    
  25 C25           -4.6776     1.4780     6.8441 C.ar    
  26 C26           -4.0812     2.5539     7.4747 C.ar    
  27 C27           -4.1738     3.8175     6.9217 C.ar    
  28 C28           -4.8596     4.0044     5.7361 C.ar    
  29 H29            0.7884     1.5074     0.2381 H       
  30 H30           -3.3219    -3.3798    -0.2034 H       
  31 H31           -2.3969     1.8773     0.1159 H       
  32 H32           -7.1674     0.8930     0.8918 H       
  33 H33           -6.9799     1.5236    -0.7590 H       
  34 H34           -8.7352    -0.2890    -0.5214 H       
  35 H35           -7.4632    -0.6524    -1.7163 H       
  36 H36           -7.3419    -1.5700     1.1929 H       
  37 H37           -8.0028    -2.5739    -0.1235 H       
  38 H38           -5.5523    -2.9904     0.3796 H       
  39 H39           -5.8929    -2.5388    -1.3051 H       
  40 H40           -6.8735     3.3541     1.3908 H       
  41 H41           -6.6344     4.1386     3.7991 H       
  42 H42           -7.0152     2.4007     3.7453 H       
  43 H43           -5.8330     0.8252     5.1681 H       
  44 H44           -4.6052     0.4909     7.2762 H       
  45 H45           -3.5431     2.4074     8.3996 H       
  46 H46           -3.7081     4.6581     7.4145 H       
  47 H47           -4.9288     4.9910     5.3020 H       
@<TRIPOS>BOND
   1    1    2 1
   2    1   29 1
   3    2    3 2
   4    3    8 1
   5    3    4 1
   6    4    5 2
   7    4    6 am
   8    6    7 1
   9    6   30 1
  10    7   16 ar
  11    7    8 ar
  12    8    9 ar
  13    9   10 ar
  14    9   31 1
  15   10   11 ar
  16   10   17 1
  17   11   16 ar
  18   11   12 1
  19   12   13 1
  20   12   32 1
  21   12   33 1
  22   13   14 1
  23   13   34 1
  24   13   35 1
  25   14   15 1
  26   14   36 1
  27   14   37 1
  28   15   16 1
  29   15   38 1
  30   15   39 1
  31   17   18 2
  32   17   19 2
  33   17   20 am
  34   20   21 1
  35   20   40 1
  36   21   22 1
  37   22   23 1
  38   22   41 1
  39   22   42 1
  40   23   28 ar
  41   23   24 ar
  42   24   25 ar
  43   24   43 1
  44   25   26 ar
  45   25   44 1
  46   26   27 ar
  47   26   45 1
  48   27   28 ar
  49   27   46 1
  50   28   47 1

#	End of record

