#	Name: ASD07300838
#	Creating user name:	WinNT
#	Creation time:	15. 06. 2019 21:10

#	Modifying user name:	WinNT
#	Modification time:	15. 06. 2019 21:10

#	Program:	/corina/corina34_cracker 3.40 0067  02.08.2006

@<TRIPOS>MOLECULE
ASD07300838
  47   51    0    0    0
SMALL
NO_CHARGES


@<TRIPOS>ATOM
   1 N1             0.2074     1.2803     0.0888 N.am    
   2 C2             0.1374    -0.0741     0.0465 C.2     
   3 N3             1.1894    -0.8379     0.0046 N.2     
   4 C4             2.4329    -0.3323    -0.0002 C.2     
   5 C5             2.6055     1.0602     0.0412 C.2     
   6 C6             1.4100     1.9019     0.0884 C.2     
   7 N7             3.6768    -0.8764    -0.0383 N.pl3   
   8 N8             4.6133     0.1649    -0.0209 N.2     
   9 C9             3.9904     1.3101     0.0259 C.2     
  10 O10            1.4934     3.1168     0.1252 O.2     
  11 C11            3.9860    -2.3075    -0.0885 C.3     
  12 C12            4.7784    -2.6162    -1.3625 C.3     
  13 C13            5.1646    -4.0976    -1.3676 C.3     
  14 O14            5.9212    -4.3953    -0.1924 O.3     
  15 C15            5.2142    -4.1709     1.0290 C.3     
  16 C16            4.8300    -2.6925     1.1304 C.3     
  17 C17           -1.2225    -0.7236     0.0487 C.3     
  18 C18           -1.6494    -1.2636    -1.3265 C.3     
  19 C19           -2.2273    -2.4789    -0.5822 C.3     
  20 C20           -1.2068    -2.1841     0.5297 C.3     
  21 C21           -1.7588    -2.3678     1.9199 C.ar    
  22 C22           -3.0730    -2.0310     2.1828 C.ar    
  23 C23           -3.5712    -2.2038     3.4653 C.ar    
  24 C24           -2.7249    -2.7111     4.4392 C.ar    
  25 C25           -1.4219    -3.0255     4.1018 C.ar    
  26 N26           -0.9837    -2.8531     2.8702 N.ar    
  27 H27           -0.6077     1.8055     0.1154 H       
  28 H28            4.4576     2.2836     0.0490 H       
  29 H29            3.0591    -2.8811    -0.0877 H       
  30 H30            4.1640    -2.3969    -2.2357 H       
  31 H31            5.6803    -2.0046    -1.3877 H       
  32 H32            4.2620    -4.7085    -1.3833 H       
  33 H33            5.7654    -4.3136    -2.2511 H       
  34 H34            4.3123    -4.7828     1.0447 H       
  35 H35            5.8507    -4.4398     1.8721 H       
  36 H36            5.7329    -2.0824     1.1556 H       
  37 H37            4.2525    -2.5278     2.0401 H       
  38 H38           -1.9833    -0.1112     0.5327 H       
  39 H39           -2.4061    -0.6533    -1.8195 H       
  40 H40           -0.8112    -1.5090    -1.9786 H       
  41 H41           -3.2633    -2.3476    -0.2701 H       
  42 H42           -2.0549    -3.4262    -1.0931 H       
  43 H43           -0.2476    -2.6812     0.3851 H       
  44 H44           -3.7039    -1.6379     1.3994 H       
  45 H45           -4.5941    -1.9490     3.7000 H       
  46 H46           -3.0792    -2.8584     5.4487 H       
  47 H47           -0.7562    -3.4209     4.8547 H       
@<TRIPOS>BOND
   1    1    2 1
   2    1    6 am
   3    1   27 1
   4    2    3 2
   5    2   17 1
   6    3    4 1
   7    4    5 2
   8    4    7 1
   9    5    6 1
  10    5    9 1
  11    6   10 2
  12    7    8 1
  13    7   11 1
  14    8    9 2
  15    9   28 1
  16   11   12 1
  17   11   16 1
  18   11   29 1
  19   12   13 1
  20   12   30 1
  21   12   31 1
  22   13   14 1
  23   13   32 1
  24   13   33 1
  25   14   15 1
  26   15   16 1
  27   15   34 1
  28   15   35 1
  29   16   36 1
  30   16   37 1
  31   17   18 1
  32   17   20 1
  33   17   38 1
  34   18   19 1
  35   18   39 1
  36   18   40 1
  37   19   20 1
  38   19   41 1
  39   19   42 1
  40   20   21 1
  41   20   43 1
  42   21   22 ar
  43   21   26 ar
  44   22   23 ar
  45   22   44 1
  46   23   24 ar
  47   23   45 1
  48   24   25 ar
  49   24   46 1
  50   25   26 ar
  51   25   47 1

#	End of record

