#	Name: ASD01028348
#	Creating user name:	WinNT
#	Creation time:	15. 06. 2019 18:57

#	Modifying user name:	WinNT
#	Modification time:	15. 06. 2019 18:57

#	Program:	/corina/corina34_cracker 3.40 0067  02.08.2006

@<TRIPOS>MOLECULE
ASD01028348
  49   53    0    0    0
SMALL
NO_CHARGES


@<TRIPOS>ATOM
   1 C1            -0.0163     1.4115     0.0119 C.ar    
   2 C2            -0.0228     0.0119     0.2282 C.ar    
   3 C3             1.1874     2.1267     0.2038 C.ar    
   4 C4             2.3082     1.4171     0.5967 C.ar    
   5 C5             2.2222     0.0441     0.7888 C.ar    
   6 N6             1.0993    -0.6107     0.6083 N.ar    
   7 O7             1.2422     3.4673     0.0084 O.3     
   8 C8             2.5264     4.0858     0.1105 C.3     
   9 C9             2.5388     5.3548    -0.7021 C.2     
  10 N10            3.5182     5.7538    -1.5427 N.pl3   
  11 C11            3.1060     6.9588    -2.0606 C.2     
  12 N12            1.9270     7.2237    -1.5220 N.2     
  13 N13            1.5992     6.2671    -0.7251 N.2     
  14 N14            4.7436     5.2078    -1.9301 N.2     
  15 C15            5.5121     5.8381    -2.7906 C.2     
  16 C16            5.1171     7.0765    -3.3395 C.2     
  17 C17            3.9295     7.6327    -2.9823 C.2     
  18 C18            6.8103     5.2404    -3.1889 C.ar    
  19 C19           -1.2160    -0.7034     0.0390 C.ar    
  20 C20            7.2111     4.0180    -2.6530 C.ar    
  21 C21            8.4196     3.4665    -3.0274 C.ar    
  22 C22            9.2323     4.1247    -3.9328 C.ar    
  23 C23            8.8394     5.3382    -4.4678 C.ar    
  24 C24            7.6306     5.8965    -4.1045 C.ar    
  25 C25           -2.3546    -0.0360    -0.3518 C.ar    
  26 C26           -2.3368     1.3458    -0.5626 C.ar    
  27 C27           -1.1947     2.0631    -0.3806 C.ar    
  28 O28           -3.5089    -0.7281    -0.5353 O.3     
  29 C29           -4.6566     0.0203    -0.9410 C.3     
  30 C30            2.8187     4.4155     1.5757 C.3     
  31 H31            3.2464     1.9287     0.7531 H       
  32 H32            3.1037    -0.4995     1.0952 H       
  33 H33            3.2888     3.4047    -0.2677 H       
  34 H34            5.7592     7.5830    -4.0448 H       
  35 H35            3.6221     8.5804    -3.3992 H       
  36 H36           -1.2402    -1.7712     0.1989 H       
  37 H37            6.5775     3.5035    -1.9458 H       
  38 H38            8.7314     2.5194    -2.6125 H       
  39 H39           10.1773     3.6896    -4.2227 H       
  40 H40            9.4780     5.8480    -5.1740 H       
  41 H41            7.3248     6.8441    -4.5229 H       
  42 H42           -3.2409     1.8507    -0.8694 H       
  43 H43           -1.1936     3.1303    -0.5466 H       
  44 H44           -4.8838     0.7742    -0.1872 H       
  45 H45           -4.4535     0.5089    -1.8939 H       
  46 H46           -5.5080    -0.6514    -1.0512 H       
  47 H47            2.0563     5.0965     1.9539 H       
  48 H48            2.8097     3.4976     2.1634 H       
  49 H49            3.7982     4.8873     1.6535 H       
@<TRIPOS>BOND
   1    1    2 ar
   2    1    3 ar
   3    1   27 ar
   4    2   19 ar
   5    2    6 ar
   6    3    4 ar
   7    3    7 1
   8    4    5 ar
   9    4   31 1
  10    5    6 ar
  11    5   32 1
  12    7    8 1
  13    8    9 1
  14    8   30 1
  15    8   33 1
  16    9   10 1
  17    9   13 2
  18   10   11 1
  19   10   14 1
  20   11   12 2
  21   11   17 1
  22   12   13 1
  23   14   15 2
  24   15   16 1
  25   15   18 1
  26   16   17 2
  27   16   34 1
  28   17   35 1
  29   18   20 ar
  30   18   24 ar
  31   19   25 ar
  32   19   36 1
  33   20   21 ar
  34   20   37 1
  35   21   22 ar
  36   21   38 1
  37   22   23 ar
  38   22   39 1
  39   23   24 ar
  40   23   40 1
  41   24   41 1
  42   25   26 ar
  43   25   28 1
  44   26   27 ar
  45   26   42 1
  46   27   43 1
  47   28   29 1
  48   29   44 1
  49   29   45 1
  50   29   46 1
  51   30   47 1
  52   30   48 1
  53   30   49 1

#	End of record

