#	Name: ASD05130003
#	Creating user name:	WinNT
#	Creation time:	15. 06. 2019 20:56

#	Modifying user name:	WinNT
#	Modification time:	15. 06. 2019 20:56

#	Program:	/corina/corina34_cracker 3.40 0067  02.08.2006

@<TRIPOS>MOLECULE
ASD05130003
  70   74    0    0    0
SMALL
NO_CHARGES


@<TRIPOS>ATOM
   1 N1            -0.1623     1.5511     0.1044 N.am    
   2 C2             0.0503     0.4234     0.8111 C.2     
   3 O3             1.1175     0.2459     1.3662 O.2     
   4 N4            -0.9199    -0.5077     0.9025 N.am    
   5 C5            -0.6640    -1.7248     1.5463 C.ar    
   6 C6            -1.6749    -2.3643     2.2517 C.ar    
   7 C7            -1.4205    -3.5643     2.8858 C.ar    
   8 C8            -0.1581    -4.1299     2.8191 C.ar    
   9 C9             0.8513    -3.4937     2.1168 C.ar    
  10 C10            0.5991    -2.2965     1.4755 C.ar    
  11 C11           -2.5172    -4.2587     3.6514 C.3     
  12 O12           -3.3220    -8.1389     2.2987 O.3     
  13 C13           -4.4268    -7.3985     2.8246 C.3     
  14 C14           -3.8994    -6.2476     3.6855 C.3     
  15 N15           -3.0019    -5.4094     2.8774 N.3     
  16 C16           -1.8801    -6.2020     2.3534 C.3     
  17 C17           -2.4277    -7.3534     1.5059 C.3     
  18 F18            0.0889    -5.3038     3.4406 F       
  19 C19            0.8116     2.5583     0.0824 C.ar    
  20 C20            0.4349     3.8870    -0.0894 C.ar    
  21 C21            1.3936     4.8844    -0.1113 C.ar    
  22 C22            2.7299     4.5663     0.0374 C.ar    
  23 C23            3.1154     3.2364     0.2101 C.ar    
  24 C24            2.1489     2.2321     0.2374 C.ar    
  25 F25           -0.8703     4.2037    -0.2358 F       
  26 N26            6.5380     2.8539     1.7792 N.am    
  27 C27            5.2354     3.1662     1.6334 C.2     
  28 C28            4.5479     2.8930     0.3693 C.2     
  29 C29            5.2371     2.3183    -0.6636 C.2     
  30 C30            6.6044     1.9995    -0.4860 C.ar    
  31 C31            7.3482     1.4109    -1.5160 C.ar    
  32 N32            8.6182     1.1213    -1.3347 N.ar    
  33 C33            9.2441     1.3682    -0.1888 C.ar    
  34 C34            8.5821     1.9494     0.8833 C.ar    
  35 C35            7.2381     2.2757     0.7454 C.ar    
  36 O36            4.6270     3.6774     2.5567 O.2     
  37 N37           10.5856     1.0381    -0.0617 N.pl3   
  38 C38           11.2895     1.3040     1.1952 C.3     
  39 C39            7.2159     3.1377     3.0465 C.3     
  40 C40            7.0840     1.9303     3.9770 C.3     
  41 Cl41           3.9293     5.8210     0.0087 Cl      
  42 H42           -0.9879     1.6639    -0.3921 H       
  43 H43           -1.7954    -0.3347     0.5224 H       
  44 H44           -2.6593    -1.9232     2.3045 H       
  45 H45            1.8352    -3.9362     2.0662 H       
  46 H46            1.3855    -1.8029     0.9237 H       
  47 H47           -2.1292    -4.6032     4.6100 H       
  48 H48           -3.3388    -3.5628     3.8209 H       
  49 H49           -5.0196    -6.9964     2.0031 H       
  50 H50           -5.0473    -8.0548     3.4349 H       
  51 H51           -4.7360    -5.6466     4.0419 H       
  52 H52           -3.3517    -6.6514     4.5371 H       
  53 H53           -1.2426    -5.5678     1.7374 H       
  54 H54           -1.3001    -6.6051     3.1836 H       
  55 H55           -1.6024    -7.9770     1.1623 H       
  56 H56           -2.9624    -6.9500     0.6459 H       
  57 H57            1.0967     5.9141    -0.2453 H       
  58 H58            2.4423     1.2019     0.3753 H       
  59 H59            4.7441     2.1103    -1.6017 H       
  60 H60            6.8770     1.1935    -2.4632 H       
  61 H61            9.1024     2.1451     1.8092 H       
  62 H62           11.0574     0.6312    -0.8052 H       
  63 H63           11.2598     2.3724     1.4093 H       
  64 H64           10.8060     0.7577     2.0051 H       
  65 H65           12.3264     0.9799     1.1066 H       
  66 H66            8.2707     3.3373     2.8576 H       
  67 H67            6.7594     4.0094     3.5155 H       
  68 H68            6.0292     1.7307     4.1659 H       
  69 H69            7.5404     1.0586     3.5081 H       
  70 H70            7.5883     2.1415     4.9199 H       
@<TRIPOS>BOND
   1    1    2 am
   2    1   19 1
   3    1   42 1
   4    2    3 2
   5    2    4 am
   6    4    5 1
   7    4   43 1
   8    5    6 ar
   9    5   10 ar
  10    6    7 ar
  11    6   44 1
  12    7    8 ar
  13    7   11 1
  14    8    9 ar
  15    8   18 1
  16    9   10 ar
  17    9   45 1
  18   10   46 1
  19   11   15 1
  20   11   47 1
  21   11   48 1
  22   12   13 1
  23   12   17 1
  24   13   14 1
  25   13   49 1
  26   13   50 1
  27   14   15 1
  28   14   51 1
  29   14   52 1
  30   15   16 1
  31   16   17 1
  32   16   53 1
  33   16   54 1
  34   17   55 1
  35   17   56 1
  36   19   20 ar
  37   19   24 ar
  38   20   21 ar
  39   20   25 1
  40   21   22 ar
  41   21   57 1
  42   22   23 ar
  43   22   41 1
  44   23   24 ar
  45   23   28 1
  46   24   58 1
  47   26   27 am
  48   26   35 1
  49   26   39 1
  50   27   28 1
  51   27   36 2
  52   28   29 2
  53   29   30 1
  54   29   59 1
  55   30   31 ar
  56   30   35 ar
  57   31   32 ar
  58   31   60 1
  59   32   33 ar
  60   33   34 ar
  61   33   37 1
  62   34   35 ar
  63   34   61 1
  64   37   38 1
  65   37   62 1
  66   38   63 1
  67   38   64 1
  68   38   65 1
  69   39   40 1
  70   39   66 1
  71   39   67 1
  72   40   68 1
  73   40   69 1
  74   40   70 1

#	End of record

