#	Name: ASD01912542
#	Creating user name:	WinNT
#	Creation time:	15. 06. 2019 19:59

#	Modifying user name:	WinNT
#	Modification time:	15. 06. 2019 19:59

#	Program:	/corina/corina34_cracker 3.40 0067  02.08.2006

@<TRIPOS>MOLECULE
ASD01912542
  61   65    0    0    0
SMALL
NO_CHARGES


@<TRIPOS>ATOM
   1 C1            -2.4083     1.3751    -0.0227 C.ar    
   2 C2            -2.4218    -0.0087    -0.0223 C.ar    
   3 C3            -1.2094    -0.6980    -0.0067 C.ar    
   4 N4            -0.0578    -0.0365     0.0076 N.ar    
   5 C5            -0.0182     1.2802     0.0075 C.ar    
   6 C6            -1.1826     2.0259    -0.0128 C.ar    
   7 C7            -1.2061    -2.1771    -0.0056 C.2     
   8 N8            -0.1089    -2.9811    -0.1097 N.pl3   
   9 C9            -2.2994    -2.9859     0.1057 C.2     
  10 C10           -1.8541    -4.3174     0.0628 C.2     
  11 N11           -0.5436    -4.3118    -0.0660 N.2     
  12 C12           -2.7135    -5.5245     0.1516 C.ar    
  13 C13           -2.1431    -6.7943     0.0960 C.ar    
  14 C14           -1.1213     3.5317    -0.0131 C.3     
  15 C15           -4.0927    -5.3916     0.2965 C.ar    
  16 C16           -4.8871    -6.5173     0.3785 C.ar    
  17 C17           -4.3162    -7.7757     0.3175 C.ar    
  18 C18           -2.9468    -7.9133     0.1790 C.ar    
  19 C19           -3.6959     2.1579    -0.0398 C.3     
  20 C20            1.2790    -2.5319    -0.2444 C.3     
  21 C21            1.8559    -2.2663     1.1223 C.2     
  22 N22            3.1287    -1.8407     1.2455 N.am    
  23 O23            1.1747    -2.4357     2.1114 O.2     
  24 C24            3.7113    -1.5756     2.5697 C.3     
  25 C25            5.0440    -2.3248     2.6740 C.3     
  26 N26            5.8976    -1.9599     1.5355 N.3     
  27 C27            5.2944    -2.3759     0.2623 C.3     
  28 C28            3.9739    -1.6347     0.0595 C.3     
  29 C29            7.1684    -2.4892     1.6786 C.ar    
  30 N30            8.0744    -2.2591     0.7397 N.ar    
  31 C31            9.2980    -2.7502     0.8458 C.ar    
  32 C32            9.6264    -3.5130     1.9556 C.ar    
  33 C33            8.6546    -3.7342     2.9188 C.ar    
  34 N34            7.4516    -3.2095     2.7540 N.ar    
  35 H35           -3.3579    -0.5473    -0.0336 H       
  36 H36            0.9369     1.7842     0.0198 H       
  37 H37           -3.3240    -2.6604     0.2087 H       
  38 H38           -1.0740    -6.9029    -0.0121 H       
  39 H39           -1.0891     3.8938    -1.0407 H       
  40 H40           -2.0043     3.9314     0.4855 H       
  41 H41           -0.2261     3.8590     0.5156 H       
  42 H42           -4.5394    -4.4095     0.3450 H       
  43 H43           -5.9564    -6.4154     0.4909 H       
  44 H44           -4.9414    -8.6539     0.3824 H       
  45 H45           -2.5062    -8.8982     0.1318 H       
  46 H46           -4.0198     2.3470     0.9836 H       
  47 H47           -3.5374     3.1069    -0.5520 H       
  48 H48           -4.4619     1.5859    -0.5635 H       
  49 H49            1.8645    -3.3050    -0.7419 H       
  50 H50            1.3089    -1.6165    -0.8354 H       
  51 H51            3.8826    -0.5056     2.6868 H       
  52 H52            3.0317    -1.9276     3.3458 H       
  53 H53            5.5425    -2.0526     3.6043 H       
  54 H54            4.8594    -3.3990     2.6606 H       
  55 H55            5.9745    -2.1408    -0.5564 H       
  56 H56            5.1063    -3.4494     0.2825 H       
  57 H57            3.4680    -2.0230    -0.8245 H       
  58 H58            4.1673    -0.5692    -0.0643 H       
  59 H59           10.0321    -2.5595     0.0770 H       
  60 H60           10.6180    -3.9263     2.0671 H       
  61 H61            8.8781    -4.3244     3.7952 H       
@<TRIPOS>BOND
   1    1    2 ar
   2    1   19 1
   3    1    6 ar
   4    2    3 ar
   5    2   35 1
   6    3    4 ar
   7    3    7 1
   8    4    5 ar
   9    5    6 ar
  10    5   36 1
  11    6   14 1
  12    7    8 1
  13    7    9 2
  14    8   20 1
  15    8   11 1
  16    9   10 1
  17    9   37 1
  18   10   11 2
  19   10   12 1
  20   12   13 ar
  21   12   15 ar
  22   13   18 ar
  23   13   38 1
  24   14   39 1
  25   14   40 1
  26   14   41 1
  27   15   16 ar
  28   15   42 1
  29   16   17 ar
  30   16   43 1
  31   17   18 ar
  32   17   44 1
  33   18   45 1
  34   19   46 1
  35   19   47 1
  36   19   48 1
  37   20   21 1
  38   20   49 1
  39   20   50 1
  40   21   22 am
  41   21   23 2
  42   22   24 1
  43   22   28 1
  44   24   25 1
  45   24   51 1
  46   24   52 1
  47   25   26 1
  48   25   53 1
  49   25   54 1
  50   26   27 1
  51   26   29 1
  52   27   28 1
  53   27   55 1
  54   27   56 1
  55   28   57 1
  56   28   58 1
  57   29   30 ar
  58   29   34 ar
  59   30   31 ar
  60   31   32 ar
  61   31   59 1
  62   32   33 ar
  63   32   60 1
  64   33   34 ar
  65   33   61 1

#	End of record

