#	Name: ASD08150321
#	Creating user name:	WinNT
#	Creation time:	15. 06. 2019 21:15

#	Modifying user name:	WinNT
#	Modification time:	15. 06. 2019 21:15

#	Program:	/corina/corina34_cracker 3.40 0067  02.08.2006

@<TRIPOS>MOLECULE
ASD08150321
  57   62    0    0    0
SMALL
NO_CHARGES


@<TRIPOS>ATOM
   1 N1            -0.9409     0.1647     1.0412 N.am    
   2 C2            -1.0852    -1.1584     0.8327 C.2     
   3 C3             0.0134    -1.9548     0.4509 C.2     
   4 C4             1.2390    -1.3947     0.2869 C.2     
   5 C5             1.3943    -0.0030     0.5049 C.ar    
   6 C6             2.6433     0.6279     0.3481 C.ar    
   7 N7             2.7837     1.9119     0.5499 N.ar    
   8 C8             1.7586     2.6975     0.9138 C.ar    
   9 C9             0.4655     2.1479     1.0944 C.ar    
  10 C10            0.2802     0.7612     0.8847 C.ar    
  11 C11           -0.5959     2.9750     1.4747 C.ar    
  12 C12           -0.3701     4.3277     1.6715 C.ar    
  13 C13            0.9123     4.8643     1.4909 C.ar    
  14 C14            1.9544     4.0729     1.1206 C.ar    
  15 O15           -2.1807    -1.6740     0.9767 O.2     
  16 C16           -1.4906     5.2123     2.0746 C.2     
  17 C17           -2.0496     0.9356     1.4149 C.ar    
  18 C18           -2.9619     1.3518     0.4536 C.ar    
  19 C19           -4.0539     2.1111     0.8215 C.ar    
  20 C20           -4.2409     2.4592     2.1535 C.ar    
  21 C21           -3.3286     2.0430     3.1146 C.ar    
  22 C22           -2.2393     1.2787     2.7471 C.ar    
  23 N23           -5.3469     3.2288     2.5263 N.3     
  24 C24           -1.3071     6.3580     2.8468 C.2     
  25 C25           -6.3985     2.3885     3.1159 C.3     
  26 C26           -7.5552     3.2758     3.5820 C.3     
  27 N27           -8.0745     4.0399     2.4392 N.3     
  28 C28           -7.0228     4.8802     1.8497 C.3     
  29 C29           -5.8661     3.9929     1.3835 C.3     
  30 C30           -2.4195     7.0362     3.1166 C.2     
  31 S31           -3.8026     6.2352     2.3841 S.3     
  32 C32           -2.7677     4.9780     1.7201 C.2     
  33 C33           -3.5311     2.4206     4.5595 C.3     
  34 F34           -2.4039     2.0502     5.3007 F       
  35 F35           -3.7205     3.8032     4.6580 F       
  36 F36           -4.6570     1.7588     5.0609 F       
  37 H37           -0.1204    -3.0142     0.2887 H       
  38 H38            2.0837    -2.0010    -0.0052 H       
  39 H39            3.5012     0.0403     0.0561 H       
  40 H40           -1.5843     2.5625     1.6138 H       
  41 H41            1.0748     5.9205     1.6475 H       
  42 H42            2.9358     4.5031     0.9859 H       
  43 H43           -2.8164     1.0814    -0.5819 H       
  44 H44           -4.7630     2.4349     0.0740 H       
  45 H45           -1.5325     0.9510     3.4950 H       
  46 H46           -0.3357     6.6713     3.1998 H       
  47 H47           -6.7605     1.6817     2.3692 H       
  48 H48           -5.9929     1.8425     3.9676 H       
  49 H49           -8.3490     2.6522     3.9933 H       
  50 H50           -7.1993     3.9644     4.3484 H       
  51 H51           -8.4774     3.4262     1.7470 H       
  52 H52           -7.4284     5.4263     0.9980 H       
  53 H53           -6.6609     5.5870     2.5963 H       
  54 H54           -5.0723     4.6166     0.9722 H       
  55 H55           -6.2220     3.3043     0.6172 H       
  56 H56           -2.4661     7.9442     3.6995 H       
  57 H57           -3.1056     4.1435     1.1235 H       
@<TRIPOS>BOND
   1    1    2 am
   2    1   10 1
   3    1   17 1
   4    2    3 1
   5    2   15 2
   6    3    4 2
   7    3   37 1
   8    4    5 1
   9    4   38 1
  10    5    6 ar
  11    5   10 ar
  12    6    7 ar
  13    6   39 1
  14    7    8 ar
  15    8    9 ar
  16    8   14 ar
  17    9   10 ar
  18    9   11 ar
  19   11   12 ar
  20   11   40 1
  21   12   13 ar
  22   12   16 1
  23   13   14 ar
  24   13   41 1
  25   14   42 1
  26   16   24 1
  27   16   32 2
  28   17   18 ar
  29   17   22 ar
  30   18   19 ar
  31   18   43 1
  32   19   20 ar
  33   19   44 1
  34   20   21 ar
  35   20   23 1
  36   21   22 ar
  37   21   33 1
  38   22   45 1
  39   23   25 1
  40   23   29 1
  41   24   30 2
  42   24   46 1
  43   25   26 1
  44   25   47 1
  45   25   48 1
  46   26   27 1
  47   26   49 1
  48   26   50 1
  49   27   28 1
  50   27   51 1
  51   28   29 1
  52   28   52 1
  53   28   53 1
  54   29   54 1
  55   29   55 1
  56   30   31 1
  57   30   56 1
  58   31   32 1
  59   32   57 1
  60   33   34 1
  61   33   35 1
  62   33   36 1

#	End of record

