#	Name: ASD03540031
#	Creating user name:	WinNT
#	Creation time:	15. 06. 2019 20:42

#	Modifying user name:	WinNT
#	Modification time:	15. 06. 2019 20:42

#	Program:	/corina/corina34_cracker 3.40 0067  02.08.2006

@<TRIPOS>MOLECULE
ASD03540031
  46   48    0    0    0
SMALL
NO_CHARGES


@<TRIPOS>ATOM
   1 C1            -0.0167     1.3781     0.0096 C.ar    
   2 C2             0.0021    -0.0041     0.0020 C.ar    
   3 C3             1.2084    -0.6789    -0.0132 C.ar    
   4 C4             2.3960     0.0285    -0.0212 C.ar    
   5 C5             2.3773     1.4107    -0.0145 C.ar    
   6 C6             1.1709     2.0855     0.0021 C.ar    
   7 C7             3.7112    -0.7071    -0.0368 C.3     
   8 N8             4.1244    -0.9395    -1.4230 N.am    
   9 C9             4.8946     0.0001    -2.0482 C.2     
  10 C10            3.7383    -2.0697    -2.0331 C.2     
  11 C11            5.2928    -0.1927    -3.3410 C.2     
  12 C12            6.1001     0.7786    -4.0160 C.1     
  13 C13            6.7620     1.5748    -4.5693 C.1     
  14 C14            5.2197    -1.6874    -5.2883 C.2     
  15 C15            4.8643    -1.4390    -4.0256 C.2     
  16 C16            7.5694     2.5460    -5.2443 C.2     
  17 N17            7.9511     2.3359    -6.5197 N.am    
  18 O18            7.9111     3.5618    -4.6658 O.2     
  19 C19            8.7770     3.3295    -7.2102 C.3     
  20 C20            9.0624     2.8581    -8.6129 C.ar    
  21 N21            4.0808    -2.3484    -3.3040 N.am    
  22 C22            8.2046     3.1949    -9.6432 C.ar    
  23 C23            8.4663     2.7625   -10.9298 C.ar    
  24 C24            9.5861     1.9937   -11.1862 C.ar    
  25 C25           10.4445     1.6576   -10.1560 C.ar    
  26 C26           10.1851     2.0937    -8.8701 C.ar    
  27 O27            3.0577    -2.8676    -1.4184 O.2     
  28 H28           -0.9592     1.9054     0.0170 H       
  29 H29           -0.9258    -0.5567     0.0083 H       
  30 H30            1.2231    -1.7588    -0.0184 H       
  31 H31            3.3051     1.9634    -0.0205 H       
  32 H32            1.1563     3.1654     0.0069 H       
  33 H33            4.4676    -0.1100     0.4726 H       
  34 H34            3.5986    -1.6635     0.4740 H       
  35 H35            5.1884     0.8955    -1.5206 H       
  36 H36            5.8280    -0.9766    -5.8279 H       
  37 H37            4.8988    -2.5991    -5.7702 H       
  38 H38            7.6789     1.5268    -6.9804 H       
  39 H39            8.2461     4.2807    -7.2475 H       
  40 H40            9.7162     3.4585    -6.6721 H       
  41 H41            3.7862    -3.1744    -3.7185 H       
  42 H42            7.3296     3.7956    -9.4429 H       
  43 H43            7.7957     3.0250   -11.7346 H       
  44 H44            9.7903     1.6552   -12.1913 H       
  45 H45           11.3192     1.0567   -10.3563 H       
  46 H46           10.8557     1.8312    -8.0653 H       
@<TRIPOS>BOND
   1    1    2 ar
   2    1    6 ar
   3    1   28 1
   4    2    3 ar
   5    2   29 1
   6    3    4 ar
   7    3   30 1
   8    4    5 ar
   9    4    7 1
  10    5    6 ar
  11    5   31 1
  12    6   32 1
  13    7    8 1
  14    7   33 1
  15    7   34 1
  16    8    9 1
  17    8   10 am
  18    9   11 2
  19    9   35 1
  20   10   27 2
  21   10   21 am
  22   11   12 1
  23   11   15 1
  24   12   13 3
  25   13   16 1
  26   14   15 2
  27   14   36 1
  28   14   37 1
  29   15   21 1
  30   16   17 am
  31   16   18 2
  32   17   19 1
  33   17   38 1
  34   19   20 1
  35   19   39 1
  36   19   40 1
  37   20   22 ar
  38   20   26 ar
  39   21   41 1
  40   22   23 ar
  41   22   42 1
  42   23   24 ar
  43   23   43 1
  44   24   25 ar
  45   24   44 1
  46   25   26 ar
  47   25   45 1
  48   26   46 1

#	End of record

