#	Name: ASD00170409
#	Creating user name:	WinNT
#	Creation time:	15. 06. 2019 18:32

#	Modifying user name:	WinNT
#	Modification time:	15. 06. 2019 18:32

#	Program:	/corina/corina34_cracker 3.40 0067  02.08.2006

@<TRIPOS>MOLECULE
ASD00170409
  44   46    0    0    0
SMALL
NO_CHARGES


@<TRIPOS>ATOM
   1 C1            -0.0037     1.2968    -0.1722 C.2     
   2 C2            -0.0712    -0.0751    -0.2821 C.2     
   3 C3            -1.4050    -0.5879    -0.0785 C.2     
   4 C4            -2.3019     0.3732     0.1751 C.2     
   5 S5            -1.5368     1.9521     0.1800 S.3     
   6 C6            -1.7522    -2.0529    -0.1452 C.3     
   7 C7            -3.7393     0.1361     0.4228 C.ar    
   8 C8            -4.1413    -0.8097     1.3677 C.ar    
   9 C9            -5.4847    -1.0262     1.5939 C.ar    
  10 C10           -6.4330    -0.3084     0.8868 C.ar    
  11 C11           -6.0415     0.6305    -0.0511 C.ar    
  12 C12           -4.7013     0.8610    -0.2830 C.ar    
  13 N13            1.1487     2.0379    -0.3212 N.pl3   
  14 C14            1.0862    -0.9220    -0.5743 C.2     
  15 C15            1.3596    -1.3467    -1.9639 C.ar    
  16 O16            1.8240    -1.2769     0.3271 O.2     
  17 C17            2.3948    -2.2445    -2.2316 C.ar    
  18 C18            2.6450    -2.6369    -3.5296 C.ar    
  19 C19            1.8721    -2.1417    -4.5670 C.ar    
  20 C20            0.8438    -1.2507    -4.3076 C.ar    
  21 C21            0.5800    -0.8559    -3.0130 C.ar    
  22 Cl22           2.1939    -2.6394    -6.1987 Cl      
  23 N23           -1.7618    -2.6161     1.2115 N.3     
  24 C24           -2.3231    -3.9736     1.2140 C.3     
  25 C25           -0.4144    -2.6025     1.7967 C.3     
  26 H26           -2.7376    -2.1726    -0.5953 H       
  27 H27           -1.0106    -2.5748    -0.7500 H       
  28 H28           -3.4021    -1.3710     1.9200 H       
  29 H29           -5.7971    -1.7578     2.3244 H       
  30 H30           -7.4835    -0.4820     1.0676 H       
  31 H31           -6.7868     1.1872    -0.5998 H       
  32 H32           -4.3970     1.5943    -1.0151 H       
  33 H33            2.0005     1.5906    -0.4444 H       
  34 H34            1.1079     3.0069    -0.3027 H       
  35 H35            2.9986    -2.6307    -1.4237 H       
  36 H36            3.4455    -3.3313    -3.7379 H       
  37 H37            0.2447    -0.8677    -5.1205 H       
  38 H38           -0.2223    -0.1613    -2.8119 H       
  39 H39           -1.7207    -4.6171     0.5727 H       
  40 H40           -2.3184    -4.3669     2.2306 H       
  41 H41           -3.3467    -3.9442     0.8406 H       
  42 H42           -0.0504    -1.5763     1.8469 H       
  43 H43           -0.4502    -3.0248     2.8010 H       
  44 H44            0.2571    -3.1963     1.1766 H       
@<TRIPOS>BOND
   1    1    2 2
   2    1   13 1
   3    1    5 1
   4    2    3 1
   5    2   14 1
   6    3    4 2
   7    3    6 1
   8    4    5 1
   9    4    7 1
  10    6   23 1
  11    6   26 1
  12    6   27 1
  13    7    8 ar
  14    7   12 ar
  15    8    9 ar
  16    8   28 1
  17    9   10 ar
  18    9   29 1
  19   10   11 ar
  20   10   30 1
  21   11   12 ar
  22   11   31 1
  23   12   32 1
  24   13   33 1
  25   13   34 1
  26   14   15 1
  27   14   16 2
  28   15   17 ar
  29   15   21 ar
  30   17   18 ar
  31   17   35 1
  32   18   19 ar
  33   18   36 1
  34   19   20 ar
  35   19   22 1
  36   20   21 ar
  37   20   37 1
  38   21   38 1
  39   23   24 1
  40   23   25 1
  41   24   39 1
  42   24   40 1
  43   24   41 1
  44   25   42 1
  45   25   43 1
  46   25   44 1

#	End of record

