#	Name: ASD02038001
#	Creating user name:	WinNT
#	Creation time:	15. 06. 2019 20:16

#	Modifying user name:	WinNT
#	Modification time:	15. 06. 2019 20:16

#	Program:	/corina/corina34_cracker 3.40 0067  02.08.2006

@<TRIPOS>MOLECULE
ASD02038001
  51   53    0    0    0
SMALL
NO_CHARGES


@<TRIPOS>ATOM
   1 C1             0.2451     1.7933    -0.0441 C.ar    
   2 C2             0.1082     0.4135     0.0011 C.ar    
   3 C3             1.2312    -0.3911     0.0029 C.ar    
   4 C4             2.4907     0.1777    -0.0401 C.ar    
   5 C5             2.6297     1.5526    -0.0852 C.ar    
   6 C6             1.5099     2.3616    -0.0873 C.ar    
   7 O7            -0.8582     2.5868    -0.0518 O.3     
   8 C8             3.7140    -0.7024    -0.0375 C.3     
   9 C9             4.2304    -0.8536     1.3948 C.3     
  10 C10            4.6644     0.5134     1.9275 C.3     
  11 O11            4.7292    -0.1093    -0.8497 O.3     
  12 N12            5.3777    -1.7708     1.4074 N.3     
  13 C13            5.9776    -1.8449     2.7457 C.3     
  14 C14            7.2514    -2.6912     2.6891 C.3     
  15 C15            6.9035    -4.0953     2.1869 C.3     
  16 C16            6.2364    -3.9867     0.8130 C.3     
  17 C17            4.9920    -3.1028     0.9240 C.3     
  18 C18            8.1818    -4.9279     2.0702 C.3     
  19 C19            7.8268    -6.3434     1.6946 C.ar    
  20 C20            7.7452    -6.7054     0.3630 C.ar    
  21 C21            7.4195    -8.0039     0.0184 C.ar    
  22 C22            7.1758    -8.9405     1.0055 C.ar    
  23 C23            7.2583    -8.5788     2.3371 C.ar    
  24 C24            7.5882    -7.2813     2.6817 C.ar    
  25 H25           -0.8753    -0.0312     0.0351 H       
  26 H26            1.1252    -1.4653     0.0385 H       
  27 H27            3.6146     1.9945    -0.1184 H       
  28 H28            1.6190     3.4355    -0.1229 H       
  29 H29           -1.1638     2.8440     0.8289 H       
  30 H30            3.4566    -1.6835    -0.4364 H       
  31 H31            3.4376    -1.2547     2.0264 H       
  32 H32            5.4571     0.9145     1.2959 H       
  33 H33            3.8130     1.1940     1.9182 H       
  34 H34            5.0322     0.4057     2.9479 H       
  35 H35            5.0081     0.7677    -0.5528 H       
  36 H36            6.2241    -0.8402     3.0893 H       
  37 H37            5.2688    -2.3011     3.4367 H       
  38 H38            7.9661    -2.2281     2.0088 H       
  39 H39            7.6879    -2.7589     3.6856 H       
  40 H40            6.2190    -4.5735     2.8875 H       
  41 H41            6.9351    -3.5440     0.1032 H       
  42 H42            5.9477    -4.9799     0.4691 H       
  43 H43            4.2878    -3.5531     1.6236 H       
  44 H44            4.5227    -3.0117    -0.0555 H       
  45 H45            8.8260    -4.4989     1.3026 H       
  46 H46            8.7052    -4.9260     3.0264 H       
  47 H47            7.9356    -5.9737    -0.4082 H       
  48 H48            7.3550    -8.2866    -1.0219 H       
  49 H49            6.9206    -9.9548     0.7363 H       
  50 H50            7.0676    -9.3104     3.1083 H       
  51 H51            7.6563    -6.9996     3.7221 H       
@<TRIPOS>BOND
   1    1    2 ar
   2    1    6 ar
   3    1    7 1
   4    2    3 ar
   5    2   25 1
   6    3    4 ar
   7    3   26 1
   8    4    5 ar
   9    4    8 1
  10    5    6 ar
  11    5   27 1
  12    6   28 1
  13    7   29 1
  14    8    9 1
  15    8   11 1
  16    8   30 1
  17    9   10 1
  18    9   12 1
  19    9   31 1
  20   10   32 1
  21   10   33 1
  22   10   34 1
  23   11   35 1
  24   12   13 1
  25   12   17 1
  26   13   14 1
  27   13   36 1
  28   13   37 1
  29   14   15 1
  30   14   38 1
  31   14   39 1
  32   15   16 1
  33   15   18 1
  34   15   40 1
  35   16   17 1
  36   16   41 1
  37   16   42 1
  38   17   43 1
  39   17   44 1
  40   18   19 1
  41   18   45 1
  42   18   46 1
  43   19   20 ar
  44   19   24 ar
  45   20   21 ar
  46   20   47 1
  47   21   22 ar
  48   21   48 1
  49   22   23 ar
  50   22   49 1
  51   23   24 ar
  52   23   50 1
  53   24   51 1

#	End of record

