#	Name: ASD05740166
#	Creating user name:	WinNT
#	Creation time:	15. 06. 2019 21:02

#	Modifying user name:	WinNT
#	Modification time:	15. 06. 2019 21:02

#	Program:	/corina/corina34_cracker 3.40 0067  02.08.2006

@<TRIPOS>MOLECULE
ASD05740166
  62   67    0    0    0
SMALL
NO_CHARGES


@<TRIPOS>ATOM
   1 C1             0.7636    -1.5332    -1.5885 C.3     
   2 N2             0.1630    -0.6849    -0.5496 N.3     
   3 C3            -1.1760    -1.0333    -0.3290 C.ar    
   4 C4            -1.4993    -2.3160     0.0898 C.ar    
   5 C5            -2.8197    -2.6599     0.3074 C.ar    
   6 C6            -3.8239    -1.7226     0.1073 C.ar    
   7 C7            -3.5020    -0.4382    -0.3124 C.ar    
   8 C8            -2.1810    -0.0917    -0.5243 C.ar    
   9 N9            -5.1621    -2.0722     0.3282 N.pl3   
  10 C10           -5.4855    -2.9702     1.3265 C.ar    
  11 N11           -4.5231    -3.4015     2.1345 N.ar    
  12 N12           -6.7448    -3.3648     1.4453 N.ar    
  13 C13           -7.0913    -4.2265     2.3928 C.ar    
  14 C14           -6.0934    -4.7110     3.2671 C.ar    
  15 C15           -4.7785    -4.2604     3.1051 C.ar    
  16 N16           -8.3857    -4.6531     2.5411 N.am    
  17 C17           -8.7195    -5.5264     3.5079 C.2     
  18 C18           -7.7637    -6.0407     4.4071 C.2     
  19 C19           -6.4628    -5.6598     4.3131 C.2     
  20 C20           -9.4202    -4.1501     1.6339 C.3     
  21 O21           -9.8807    -5.8827     3.6095 O.2     
  22 C22            0.9379    -0.7557     0.6970 C.3     
  23 C23            2.3721    -0.2926     0.4301 C.3     
  24 N24            2.9726    -1.1409    -0.6088 N.3     
  25 C25            2.1978    -1.0702    -1.8554 C.3     
  26 F26           -1.8669     1.1574    -0.9321 F       
  27 C27          -10.0560    -5.3212     0.8755 C.3     
  28 C28          -10.9498    -4.7536    -0.2253 C.3     
  29 C29          -11.8935    -3.7231     0.3372 C.ar    
  30 C30          -11.6902    -3.1202     1.5580 C.ar    
  31 C31          -10.5124    -3.4476     2.4380 C.3     
  32 C32          -13.0055    -3.3815    -0.4221 C.ar    
  33 C33          -13.9049    -2.4413     0.0356 C.ar    
  34 C34          -13.6988    -1.8330     1.2601 C.ar    
  35 C35          -12.5962    -2.1721     2.0163 C.ar    
  36 H36            0.7730    -2.5697    -1.2512 H       
  37 H37            0.1794    -1.4541    -2.5053 H       
  38 H38           -0.7187    -3.0459     0.2454 H       
  39 H39           -3.0706    -3.6586     0.6331 H       
  40 H40           -4.2834     0.2908    -0.4688 H       
  41 H41           -5.8617    -1.6836    -0.2200 H       
  42 H42           -3.9903    -4.6101     3.7554 H       
  43 H43           -8.0659    -6.7404     5.1722 H       
  44 H44           -5.7215    -6.0470     4.9965 H       
  45 H45           -8.9779    -3.4503     0.9248 H       
  46 H46            0.4807    -0.1097     1.4465 H       
  47 H47            0.9492    -1.7833     1.0603 H       
  48 H48            2.3627     0.7438     0.0928 H       
  49 H49            2.9563    -0.3718     1.3469 H       
  50 H50            3.9370    -0.8901    -0.7677 H       
  51 H51            2.6550    -1.7161    -2.6050 H       
  52 H52            2.1864    -0.0425    -2.2187 H       
  53 H53           -9.2748    -5.9388     0.4322 H       
  54 H54          -10.6542    -5.9212     1.5612 H       
  55 H55          -10.3271    -4.2908    -0.9910 H       
  56 H56          -11.5266    -5.5629    -0.6729 H       
  57 H57          -10.8390    -4.1002     3.2476 H       
  58 H58          -10.1115    -2.5258     2.8596 H       
  59 H59          -13.1669    -3.8558    -1.3788 H       
  60 H60          -14.7673    -2.1813    -0.5602 H       
  61 H61          -14.3985    -1.0948     1.6230 H       
  62 H62          -12.4359    -1.6966     2.9727 H       
@<TRIPOS>BOND
   1    1    2 1
   2    1   25 1
   3    1   36 1
   4    1   37 1
   5    2    3 1
   6    2   22 1
   7    3    4 ar
   8    3    8 ar
   9    4    5 ar
  10    4   38 1
  11    5    6 ar
  12    5   39 1
  13    6    7 ar
  14    6    9 1
  15    7    8 ar
  16    7   40 1
  17    8   26 1
  18    9   10 1
  19    9   41 1
  20   10   11 ar
  21   10   12 ar
  22   11   15 ar
  23   12   13 ar
  24   13   14 ar
  25   13   16 1
  26   14   15 ar
  27   14   19 1
  28   15   42 1
  29   16   17 am
  30   16   20 1
  31   17   18 1
  32   17   21 2
  33   18   19 2
  34   18   43 1
  35   19   44 1
  36   20   27 1
  37   20   31 1
  38   20   45 1
  39   22   23 1
  40   22   46 1
  41   22   47 1
  42   23   24 1
  43   23   48 1
  44   23   49 1
  45   24   25 1
  46   24   50 1
  47   25   51 1
  48   25   52 1
  49   27   28 1
  50   27   53 1
  51   27   54 1
  52   28   29 1
  53   28   55 1
  54   28   56 1
  55   29   30 ar
  56   29   32 ar
  57   30   31 1
  58   30   35 ar
  59   31   57 1
  60   31   58 1
  61   32   33 ar
  62   32   59 1
  63   33   34 ar
  64   33   60 1
  65   34   35 ar
  66   34   61 1
  67   35   62 1

#	End of record

