#	Name: ASD00840036
#	Creating user name:	WinNT
#	Creation time:	15. 06. 2019 18:37

#	Modifying user name:	WinNT
#	Modification time:	15. 06. 2019 18:37

#	Program:	/corina/corina34_cracker 3.40 0067  02.08.2006

@<TRIPOS>MOLECULE
ASD00840036
  90   95    0    0    0
SMALL
NO_CHARGES


@<TRIPOS>ATOM
   1 N1            -0.0149     1.3151     0.0239 N.ar    
   2 C2             0.0023    -0.0072     0.0102 C.ar    
   3 C3             1.2068    -0.6992    -0.0072 C.ar    
   4 C4             2.3928     0.0137    -0.0101 C.ar    
   5 C5             2.3318     1.4006     0.0047 C.ar    
   6 C6             1.0993     2.0222     0.0216 C.ar    
   7 C7             1.2215    -2.2060    -0.0223 C.3     
   8 C8             0.4763    -2.7316    -1.2307 C.2     
   9 N9             2.5990    -2.7047    -0.0120 N.am    
  10 C10            3.4467    -2.3635    -1.0028 C.2     
  11 N11            4.7402    -2.7372    -0.9415 N.am    
  12 O12            3.0444    -1.7187    -1.9519 O.2     
  13 C13            5.6553    -2.4759    -2.0628 C.3     
  14 C14            6.9060    -1.7778    -1.5180 C.3     
  15 N15            7.4742    -2.5800    -0.4264 N.3     
  16 C16            6.5396    -2.6819     0.7024 C.3     
  17 C17            5.2754    -3.4115     0.2510 C.3     
  18 C18            8.7676    -2.0360     0.0085 C.3     
  19 C19            9.2691    -2.8190     1.2250 C.3     
  20 C20           10.6443    -2.2880     1.6359 C.3     
  21 N21           11.5822    -2.4357     0.5156 N.3     
  22 C22           11.1459    -1.6543    -0.6486 C.3     
  23 C23            9.7857    -2.1664    -1.1277 C.3     
  24 H24           12.5185    -2.1807     0.7919 H       
  25 O25            0.7570    -2.5311    -2.3935 O.2     
  26 N26           -0.5547    -3.4616    -0.7731 N.am    
  27 C27            0.4478    -2.7550     1.1543 C.ar    
  28 C28           -0.6002    -3.4956     0.6216 C.ar    
  29 C29            0.6113    -2.6416     2.5165 C.ar    
  30 C30           -0.2758    -3.2708     3.3738 C.ar    
  31 C31           -1.3253    -4.0125     2.8552 C.ar    
  32 C32           -1.4898    -4.1267     1.4880 C.ar    
  33 Cl33          -0.0735    -3.1313     5.0923 Cl      
  34 F34           -2.1915    -4.6269     3.6902 F       
  35 C35           -1.0182    -5.8495    -2.0607 C.ar    
  36 C36            0.1604    -6.0105    -2.7749 C.ar    
  37 C37           -1.6971    -6.9560    -1.5870 C.ar    
  38 C38           -1.2041    -8.2249    -1.8226 C.ar    
  39 C39           -0.0255    -8.3912    -2.5364 C.ar    
  40 C40            0.6570    -7.2830    -3.0130 C.ar    
  41 O41            0.4587    -9.6397    -2.7683 O.3     
  42 O42            0.8274    -4.9220    -3.2409 O.3     
  43 C43           -0.2967   -10.7355    -2.2481 C.3     
  44 C44            2.0339    -5.1624    -3.9679 C.3     
  45 C45            2.6384    -3.8278    -4.4085 C.3     
  46 O46           -1.1675    -0.6945     0.0136 O.3     
  47 C47           -3.5780    -0.8666     0.0334 C.3     
  48 C48           -2.3717     0.0746     0.0323 C.3     
  49 S49           -1.6461    -4.2325    -1.7514 S.o2    
  50 O50           -2.8273    -4.4015    -0.9797 O.2     
  51 O51           -1.6225    -3.5479    -2.9964 O.2     
  52 H52            3.3442    -0.4972    -0.0231 H       
  53 H53            3.2388     1.9868     0.0033 H       
  54 H54            1.0463     3.1008     0.0328 H       
  55 H55            2.9011    -3.2803     0.7080 H       
  56 H56            5.9373    -3.4182    -2.5325 H       
  57 H57            5.1653    -1.8318    -2.7930 H       
  58 H58            7.6420    -1.6755    -2.3154 H       
  59 H59            6.6369    -0.7907    -1.1420 H       
  60 H60            7.0100    -3.2353     1.5152 H       
  61 H61            6.2757    -1.6822     1.0474 H       
  62 H62            4.5345    -3.3888     1.0500 H       
  63 H63            5.5180    -4.4446     0.0021 H       
  64 H64            8.6500    -0.9855     0.2747 H       
  65 H65            8.5693    -2.6950     2.0514 H       
  66 H66            9.3484    -3.8758     0.9701 H       
  67 H67           10.5616    -1.2347     1.9039 H       
  68 H68           11.0105    -2.8530     2.4931 H       
  69 H69           11.0609    -0.6039    -0.3699 H       
  70 H70           11.8765    -1.7590    -1.4507 H       
  71 H71            9.8731    -3.2129    -1.4197 H       
  72 H72            9.4550    -1.5761    -1.9822 H       
  73 H73            1.4308    -2.0628     2.9162 H       
  74 H74           -2.3100    -4.7060     1.0903 H       
  75 H75           -2.6144    -6.8287    -1.0313 H       
  76 H76           -1.7361    -9.0881    -1.4507 H       
  77 H77            1.5741    -7.4104    -3.5690 H       
  78 H78           -0.3680   -10.6456    -1.1642 H       
  79 H79           -1.2974   -10.7245    -2.6802 H       
  80 H80            0.1990   -11.6721    -2.5032 H       
  81 H81            2.7433    -5.6898    -3.3302 H       
  82 H82            1.8140    -5.7694    -4.8462 H       
  83 H83            2.8583    -3.2209    -3.5302 H       
  84 H84            3.5587    -4.0113    -4.9631 H       
  85 H85            1.9289    -3.3005    -5.0462 H       
  86 H86           -4.4965    -0.2799     0.0476 H       
  87 H87           -3.5563    -1.4860    -0.8632 H       
  88 H88           -3.5404    -1.5043     0.9166 H       
  89 H89           -2.3933     0.6941     0.9289 H       
  90 H90           -2.4093     0.7123    -0.8509 H       
@<TRIPOS>BOND
   1    1    2 ar
   2    1    6 ar
   3    2    3 ar
   4    2   46 1
   5    3    4 ar
   6    3    7 1
   7    4    5 ar
   8    4   52 1
   9    5    6 ar
  10    5   53 1
  11    6   54 1
  12    7    8 1
  13    7    9 1
  14    7   27 1
  15    8   25 2
  16    8   26 am
  17    9   10 am
  18    9   55 1
  19   10   11 am
  20   10   12 2
  21   11   13 1
  22   11   17 1
  23   13   14 1
  24   13   56 1
  25   13   57 1
  26   14   15 1
  27   14   58 1
  28   14   59 1
  29   15   16 1
  30   15   18 1
  31   16   17 1
  32   16   60 1
  33   16   61 1
  34   17   62 1
  35   17   63 1
  36   18   19 1
  37   18   23 1
  38   18   64 1
  39   19   20 1
  40   19   65 1
  41   19   66 1
  42   20   21 1
  43   20   67 1
  44   20   68 1
  45   21   22 1
  46   21   24 1
  47   22   23 1
  48   22   69 1
  49   22   70 1
  50   23   71 1
  51   23   72 1
  52   26   49 am
  53   26   28 1
  54   27   28 ar
  55   27   29 ar
  56   28   32 ar
  57   29   30 ar
  58   29   73 1
  59   30   31 ar
  60   30   33 1
  61   31   32 ar
  62   31   34 1
  63   32   74 1
  64   35   36 ar
  65   35   37 ar
  66   35   49 1
  67   36   42 1
  68   36   40 ar
  69   37   38 ar
  70   37   75 1
  71   38   39 ar
  72   38   76 1
  73   39   40 ar
  74   39   41 1
  75   40   77 1
  76   41   43 1
  77   42   44 1
  78   43   78 1
  79   43   79 1
  80   43   80 1
  81   44   45 1
  82   44   81 1
  83   44   82 1
  84   45   83 1
  85   45   84 1
  86   45   85 1
  87   46   48 1
  88   47   48 1
  89   47   86 1
  90   47   87 1
  91   47   88 1
  92   48   89 1
  93   48   90 1
  94   49   50 2
  95   49   51 2

#	End of record

