#	Name: ASD07300649
#	Creating user name:	WinNT
#	Creation time:	15. 06. 2019 21:10

#	Modifying user name:	WinNT
#	Modification time:	15. 06. 2019 21:10

#	Program:	/corina/corina34_cracker 3.40 0067  02.08.2006

@<TRIPOS>MOLECULE
ASD07300649
  44   47    0    0    0
SMALL
NO_CHARGES


@<TRIPOS>ATOM
   1 C1            -0.0034     1.3925     0.2414 C.2     
   2 C2             0.0021    -0.0041     0.0020 C.2     
   3 N3             1.1924     2.0682     0.2265 N.pl3   
   4 N4             1.1445    -0.6201    -0.2278 N.2     
   5 C5             2.3036     0.0470    -0.2402 C.2     
   6 C6             2.3502     1.3752    -0.0186 C.2     
   7 N7            -0.9664     2.2611     0.5002 N.2     
   8 C8            -0.4399     3.4745     0.6478 C.2     
   9 C9             0.9142     3.3817     0.4819 C.2     
  10 N10           -1.1860    -0.7178     0.0100 N.pl3   
  11 C11           -2.4813    -0.0311     0.1360 C.3     
  12 C12           -3.4038    -0.5300    -0.9821 C.3     
  13 O13           -3.4381    -1.9591    -0.9615 O.3     
  14 C14           -2.1747    -2.5786    -1.2141 C.3     
  15 C15           -1.1896    -2.1841    -0.1135 C.3     
  16 N16            2.7711     6.4824     0.8114 N.pl3   
  17 N17            3.8047     5.5768     0.5437 N.2     
  18 C18            3.2872     4.3861     0.3960 C.2     
  19 C19            1.8916     4.4906     0.5659 C.2     
  20 C20            1.6056     5.8016     0.8217 C.2     
  21 C21            2.9281     7.9199     1.0462 C.3     
  22 C22            3.9238     8.1448     2.1859 C.3     
  23 O23            4.0769     9.5469     2.4149 O.3     
  24 C24            4.9909     9.8679     3.4655 C.3     
  25 H25            3.2209    -0.4898    -0.4320 H       
  26 H26            3.2977     1.8932    -0.0336 H       
  27 H27           -0.9889     4.3788     0.8649 H       
  28 H28           -2.9242    -0.2578     1.1059 H       
  29 H29           -2.3372     1.0450     0.0402 H       
  30 H30           -4.4093    -0.1394    -0.8259 H       
  31 H31           -3.0254    -0.1888    -1.9457 H       
  32 H32           -2.2959    -3.6617    -1.2248 H       
  33 H33           -1.7918    -2.2448    -2.1785 H       
  34 H34           -0.1904    -2.5330    -0.3744 H       
  35 H35           -1.5001    -2.6313     0.8308 H       
  36 H36            3.8336     3.4797     0.1809 H       
  37 H37            0.6251     6.2177     1.0001 H       
  38 H38            3.2995     8.3977     0.1396 H       
  39 H39            1.9641     8.3515     1.3155 H       
  40 H40            3.5523     7.6670     3.0924 H       
  41 H41            4.8878     7.7132     1.9166 H       
  42 H42            4.6416     9.4258     4.3986 H       
  43 H43            5.9770     9.4720     3.2228 H       
  44 H44            5.0512    10.9505     3.5766 H       
@<TRIPOS>BOND
   1    1    2 1
   2    1    3 1
   3    1    7 2
   4    2    4 2
   5    2   10 1
   6    3    6 1
   7    3    9 1
   8    4    5 1
   9    5    6 2
  10    5   25 1
  11    6   26 1
  12    7    8 1
  13    8    9 2
  14    8   27 1
  15    9   19 1
  16   10   11 1
  17   10   15 1
  18   11   12 1
  19   11   28 1
  20   11   29 1
  21   12   13 1
  22   12   30 1
  23   12   31 1
  24   13   14 1
  25   14   15 1
  26   14   32 1
  27   14   33 1
  28   15   34 1
  29   15   35 1
  30   16   17 1
  31   16   20 1
  32   16   21 1
  33   17   18 2
  34   18   19 1
  35   18   36 1
  36   19   20 2
  37   20   37 1
  38   21   22 1
  39   21   38 1
  40   21   39 1
  41   22   23 1
  42   22   40 1
  43   22   41 1
  44   23   24 1
  45   24   42 1
  46   24   43 1
  47   24   44 1

#	End of record

