#	Name: ASD04590033
#	Creating user name:	WinNT
#	Creation time:	15. 06. 2019 20:50

#	Modifying user name:	WinNT
#	Modification time:	15. 06. 2019 20:50

#	Program:	/corina/corina34_cracker 3.40 0067  02.08.2006

@<TRIPOS>MOLECULE
ASD04590033
  47   50    0    0    0
SMALL
NO_CHARGES


@<TRIPOS>ATOM
   1 N1            -0.0768     1.2682    -0.0495 N.pl3   
   2 N2            -0.0362    -0.0145     0.0019 N.2     
   3 C3             1.1929    -0.4417    -0.2149 C.2     
   4 C4             2.0014     0.7057    -0.4235 C.2     
   5 C5             1.1590     1.7667    -0.3103 C.2     
   6 C6             1.6420    -1.8463    -0.2361 C.2     
   7 O7             2.8104    -2.1080    -0.4485 O.2     
   8 N8             0.7574    -2.8400    -0.0200 N.am    
   9 C9             1.1621    -4.1747    -0.1363 C.ar    
  10 C10            2.4401    -4.5505     0.2561 C.ar    
  11 C11            2.8374    -5.8682     0.1404 C.ar    
  12 C12            1.9624    -6.8143    -0.3663 C.ar    
  13 C13            0.6876    -6.4417    -0.7582 C.ar    
  14 C14            0.2843    -5.1262    -0.6389 C.ar    
  15 F15            2.3532    -8.1026    -0.4790 F       
  16 N16            3.3789     0.7382    -0.6902 N.am    
  17 C17            4.0037     1.9195    -0.8650 C.2     
  18 O18            3.3755     2.9546    -0.7918 O.2     
  19 C19            5.4828     1.9544    -1.1513 C.3     
  20 N20            6.4857     5.3384    -2.2000 N.pl3   
  21 C21            6.0536     4.0653    -2.4544 C.2     
  22 C22            5.9313     3.3851    -1.3037 C.2     
  23 C23            6.3166     4.2971    -0.2241 C.ar    
  24 C24            6.3956     4.1785     1.1650 C.ar    
  25 C25            6.8030     5.2454     1.9148 C.ar    
  26 C26            7.1393     6.4474     1.3068 C.ar    
  27 C27            7.0682     6.5864    -0.0618 C.ar    
  28 C28            6.6563     5.5128    -0.8450 C.ar    
  29 C29            6.7355     6.3616    -3.2183 C.3     
  30 H30           -0.8759     1.8036     0.0759 H       
  31 H31            1.4228     2.8093    -0.4098 H       
  32 H32           -0.1597    -2.6300     0.2161 H       
  33 H33            3.1229    -3.8129     0.6510 H       
  34 H34            3.8313    -6.1608     0.4452 H       
  35 H35            0.0069    -7.1811    -1.1535 H       
  36 H36           -0.7116    -4.8368    -0.9405 H       
  37 H37            3.8812    -0.0895    -0.7487 H       
  38 H38            6.0236     1.4900    -0.3267 H       
  39 H39            5.6875     1.4094    -2.0728 H       
  40 H40            5.8419     3.6669    -3.4357 H       
  41 H41            6.1352     3.2467     1.6449 H       
  42 H42            6.8636     5.1532     2.9891 H       
  43 H43            7.4596     7.2818     1.9130 H       
  44 H44            7.3316     7.5256    -0.5254 H       
  45 H45            5.8226     6.9311    -3.3929 H       
  46 H46            7.5221     7.0329    -2.8736 H       
  47 H47            7.0477     5.8823    -4.1461 H       
@<TRIPOS>BOND
   1    1    2 1
   2    1    5 1
   3    1   30 1
   4    2    3 2
   5    3    4 1
   6    3    6 1
   7    4    5 2
   8    4   16 1
   9    5   31 1
  10    6    7 2
  11    6    8 am
  12    8    9 1
  13    8   32 1
  14    9   10 ar
  15    9   14 ar
  16   10   11 ar
  17   10   33 1
  18   11   12 ar
  19   11   34 1
  20   12   13 ar
  21   12   15 1
  22   13   14 ar
  23   13   35 1
  24   14   36 1
  25   16   17 am
  26   16   37 1
  27   17   18 2
  28   17   19 1
  29   19   22 1
  30   19   38 1
  31   19   39 1
  32   20   21 1
  33   20   28 1
  34   20   29 1
  35   21   22 2
  36   21   40 1
  37   22   23 1
  38   23   24 ar
  39   23   28 ar
  40   24   25 ar
  41   24   41 1
  42   25   26 ar
  43   25   42 1
  44   26   27 ar
  45   26   43 1
  46   27   28 ar
  47   27   44 1
  48   29   45 1
  49   29   46 1
  50   29   47 1

#	End of record

