#	Name: ASD03080135
#	Creating user name:	WinNT
#	Creation time:	15. 06. 2019 20:26

#	Modifying user name:	WinNT
#	Modification time:	15. 06. 2019 20:26

#	Program:	/corina/corina34_cracker 3.40 0067  02.08.2006

@<TRIPOS>MOLECULE
ASD03080135
  38   41    0    0    0
SMALL
NO_CHARGES


@<TRIPOS>ATOM
   1 C1            -0.0187     1.5296     0.0105 C.3     
   2 C2             0.0021    -0.0041     0.0020 C.3     
   3 C3             1.4239     2.0435    -0.0006 C.3     
   4 N4             2.3478     0.9014    -0.0159 N.3     
   5 C5             2.1911     0.0794     1.1920 C.3     
   6 C6             0.7703    -0.4897     1.2377 C.3     
   7 C7             0.7461    -0.4763    -1.2535 C.3     
   8 C8             2.1675     0.0927    -1.2294 C.3     
   9 N9             0.8276    -1.9536     1.2360 N.am    
  10 C10            0.9929    -2.6229     2.3941 C.2     
  11 C11            1.0504    -4.0918     2.3924 C.2     
  12 O12            1.0945    -2.0114     3.4408 O.2     
  13 S13            0.9183    -5.0942     0.9581 S.3     
  14 C14            1.2163    -4.8475     3.4827 C.2     
  15 C15            1.2431    -6.2338     3.2609 C.ar    
  16 C16            1.0898    -6.5650     1.9092 C.ar    
  17 C17            1.4010    -7.2807     4.2013 C.ar    
  18 C18            1.4008    -8.5780     3.7963 C.ar    
  19 C19            1.2459    -8.9024     2.4539 C.ar    
  20 C20            1.0939    -7.9086     1.5160 C.ar    
  21 Cl21           0.9003    -8.3211    -0.1591 Cl      
  22 H22           -0.5425     1.8927    -0.8738 H       
  23 H23           -0.5255     1.8831     0.9084 H       
  24 H24           -1.0163    -0.3928     0.0027 H       
  25 H25            1.5856     2.6540    -0.8889 H       
  26 H26            1.6028     2.6440     0.8913 H       
  27 H27            2.9104    -0.7394     1.1705 H       
  28 H28            2.3654     0.6939     2.0752 H       
  29 H29            0.2669    -0.1431     2.1402 H       
  30 H30            0.7888    -1.5654    -1.2648 H       
  31 H31            0.2252    -0.1202    -2.1423 H       
  32 H32            2.3243     0.7169    -2.1091 H       
  33 H33            2.8871    -0.7261    -1.2311 H       
  34 H34            0.7466    -2.4412     0.4014 H       
  35 H35            1.3230    -4.4200     4.4687 H       
  36 H36            1.5230    -7.0463     5.2485 H       
  37 H37            1.5227    -9.3653     4.5255 H       
  38 H38            1.2480    -9.9376     2.1462 H       
@<TRIPOS>BOND
   1    1    2 1
   2    1    3 1
   3    1   22 1
   4    1   23 1
   5    2    7 1
   6    2    6 1
   7    2   24 1
   8    3    4 1
   9    3   25 1
  10    3   26 1
  11    4    5 1
  12    4    8 1
  13    5    6 1
  14    5   27 1
  15    5   28 1
  16    6    9 1
  17    6   29 1
  18    7    8 1
  19    7   30 1
  20    7   31 1
  21    8   32 1
  22    8   33 1
  23    9   10 am
  24    9   34 1
  25   10   11 1
  26   10   12 2
  27   11   13 1
  28   11   14 2
  29   13   16 1
  30   14   15 1
  31   14   35 1
  32   15   16 ar
  33   15   17 ar
  34   16   20 ar
  35   17   18 ar
  36   17   36 1
  37   18   19 ar
  38   18   37 1
  39   19   20 ar
  40   19   38 1
  41   20   21 1

#	End of record

