#	Name: ASD01410038
#	Creating user name:	WinNT
#	Creation time:	15. 06. 2019 19:16

#	Modifying user name:	WinNT
#	Modification time:	15. 06. 2019 19:16

#	Program:	/corina/corina34_cracker 3.40 0067  02.08.2006

@<TRIPOS>MOLECULE
ASD01410038
  33   34    0    0    0
SMALL
NO_CHARGES


@<TRIPOS>ATOM
   1 C1            -0.0269     1.4072    -0.0669 C.ar    
   2 C2            -0.0040     0.0235    -0.0690 C.ar    
   3 C3            -1.1899    -0.6887    -0.0482 C.ar    
   4 C4            -2.4038    -0.0145    -0.0251 C.ar    
   5 C5            -2.4255     1.3718    -0.0230 C.ar    
   6 C6            -1.2381     2.0816    -0.0385 C.ar    
   7 O7            -3.5702    -0.7135    -0.0051 O.3     
   8 C8            -4.7809     0.0453     0.0180 C.3     
   9 C9            -5.9608    -0.8919     0.0379 C.2     
  10 N10           -7.2142    -0.3970     0.0614 N.am    
  11 C11           -8.3047    -1.2580    -0.0334 C.ar    
  12 C12           -8.2270    -2.3978    -0.8219 C.ar    
  13 C13           -9.3093    -3.2500    -0.9145 C.ar    
  14 C14          -10.4788    -2.9761    -0.2242 C.ar    
  15 C15          -10.5746    -1.8494     0.5635 C.ar    
  16 C16           -9.4858    -0.9807     0.6723 C.ar    
  17 C17           -9.5811     0.2259     1.5134 C.2     
  18 O18          -10.7523     0.5510     2.0950 O.3     
  19 O19           -8.6034     0.9275     1.6823 O.2     
  20 O20           -5.7825    -2.0915     0.0328 O.2     
  21 F21           -1.1672    -2.0395    -0.0507 F       
  22 F22            1.1319     2.1015    -0.0868 F       
  23 F23           -1.2588     3.4325    -0.0365 F       
  24 H24            0.9401    -0.5007    -0.0873 H       
  25 H25           -3.3689     1.8972    -0.0054 H       
  26 H26           -4.7998     0.6722     0.9095 H       
  27 H27           -4.8320     0.6750    -0.8702 H       
  28 H28           -7.3567     0.5588     0.1444 H       
  29 H29           -7.3191    -2.6180    -1.3637 H       
  30 H30           -9.2439    -4.1355    -1.5293 H       
  31 H31          -11.3199    -3.6489    -0.3041 H       
  32 H32          -11.4887    -1.6404     1.0993 H       
  33 H33          -10.7659     1.3514     2.6375 H       
@<TRIPOS>BOND
   1    1    2 ar
   2    1   22 1
   3    1    6 ar
   4    2    3 ar
   5    2   24 1
   6    3    4 ar
   7    3   21 1
   8    4    5 ar
   9    4    7 1
  10    5    6 ar
  11    5   25 1
  12    6   23 1
  13    7    8 1
  14    8    9 1
  15    8   26 1
  16    8   27 1
  17    9   10 am
  18    9   20 2
  19   10   11 1
  20   10   28 1
  21   11   12 ar
  22   11   16 ar
  23   12   13 ar
  24   12   29 1
  25   13   14 ar
  26   13   30 1
  27   14   15 ar
  28   14   31 1
  29   15   16 ar
  30   15   32 1
  31   16   17 1
  32   17   18 1
  33   17   19 2
  34   18   33 1

#	End of record

