#	Name: ASD01940006
#	Creating user name:	WinNT
#	Creation time:	15. 06. 2019 20:11

#	Modifying user name:	WinNT
#	Modification time:	15. 06. 2019 20:11

#	Program:	/corina/corina34_cracker 3.40 0067  02.08.2006

@<TRIPOS>MOLECULE
ASD01940006
  36   37    0    0    0
SMALL
NO_CHARGES


@<TRIPOS>ATOM
   1 C1            -0.0154     1.3826    -0.0235 C.ar    
   2 C2            -0.0694     0.1414    -0.6441 C.ar    
   3 C3            -1.2551    -0.5672    -0.6676 C.ar    
   4 C4            -2.3884    -0.0425    -0.0747 C.ar    
   5 C5            -2.3397     1.1945     0.5447 C.ar    
   6 C6            -1.1545     1.9061     0.5772 C.ar    
   7 N7             1.1833     2.1014     0.0020 N.pl3   
   8 C8             2.3902     1.4309     0.0914 C.2     
   9 C9             3.6633     1.9754     0.0019 C.2     
  10 C10            4.6847     1.0332     0.1333 C.2     
  11 N11            4.3242    -0.2005     0.3177 N.2     
  12 S12            2.6308    -0.2532     0.3444 S.3     
  13 O13            5.9939     1.3899     0.0707 O.3     
  14 Cl14          -1.0928     3.4572     1.3544 Cl      
  15 Cl15          -3.7655     1.8495     1.2874 Cl      
  16 C16            3.9131     3.4102    -0.2119 C.2     
  17 N17            4.0216     3.9079    -1.4937 N.pl3   
  18 N18            4.0319     4.2125     0.8129 N.2     
  19 C19            4.2702     5.3359    -1.7064 C.3     
  20 C20            5.7737     5.6087    -1.6303 C.3     
  21 C21            3.7467     5.7449    -3.0846 C.3     
  22 O22            4.4993     5.0752    -4.0980 O.3     
  23 H23            0.8149    -0.2695    -1.1083 H       
  24 H24           -1.2968    -1.5325    -1.1502 H       
  25 H25           -3.3139    -0.5988    -0.0951 H       
  26 H26            1.1689     3.0703    -0.0428 H       
  27 H27            6.3795     1.6222     0.9265 H       
  28 H28            3.9334     3.3124    -2.2543 H       
  29 H29            4.1965     5.1580     0.6721 H       
  30 H30            3.7569     5.9126    -0.9369 H       
  31 H31            6.2870     5.0321    -2.3997 H       
  32 H32            5.9587     6.6712    -1.7886 H       
  33 H33            6.1467     5.3173    -0.6484 H       
  34 H34            2.6957     5.4692    -3.1706 H       
  35 H35            3.8507     6.8230    -3.2075 H       
  36 H36            4.2214     5.2877    -4.9995 H       
@<TRIPOS>BOND
   1    1    2 ar
   2    1    7 1
   3    1    6 ar
   4    2    3 ar
   5    2   23 1
   6    3    4 ar
   7    3   24 1
   8    4    5 ar
   9    4   25 1
  10    5    6 ar
  11    5   15 1
  12    6   14 1
  13    7    8 1
  14    7   26 1
  15    8    9 2
  16    8   12 1
  17    9   10 1
  18    9   16 1
  19   10   11 2
  20   10   13 1
  21   11   12 1
  22   13   27 1
  23   16   17 1
  24   16   18 2
  25   17   19 1
  26   17   28 1
  27   18   29 1
  28   19   20 1
  29   19   21 1
  30   19   30 1
  31   20   31 1
  32   20   32 1
  33   20   33 1
  34   21   22 1
  35   21   34 1
  36   21   35 1
  37   22   36 1

#	End of record

