#	Name: ASD01150183
#	Creating user name:	WinNT
#	Creation time:	15. 06. 2019 19:03

#	Modifying user name:	WinNT
#	Modification time:	15. 06. 2019 19:03

#	Program:	/corina/corina34_cracker 3.40 0067  02.08.2006

@<TRIPOS>MOLECULE
ASD01150183
  48   50    0    0    0
SMALL
NO_CHARGES


@<TRIPOS>ATOM
   1 N1            -0.0154     1.3814     0.0127 N.pl3   
   2 C2            -0.0010    -0.0069    -0.0009 C.2     
   3 C3            -1.3313    -0.4123     0.0083 C.2     
   4 N4            -2.0869     0.6869     0.0265 N.2     
   5 C5            -1.3210     1.7591     0.0345 C.2     
   6 C6             1.0132    -0.9805    -0.0201 C.2     
   7 N7             0.6748    -2.2864    -0.0291 N.am    
   8 C8            -0.6141    -2.6677    -0.0200 C.2     
   9 N9            -1.6160    -1.7684    -0.0018 N.am    
  10 O10            2.1857    -0.6482    -0.0288 O.2     
  11 C11           -3.0083    -2.2241     0.0081 C.3     
  12 O12           -0.8819    -3.8538    -0.0290 O.2     
  13 C13            1.7281    -3.3045    -0.0495 C.3     
  14 C14            2.1037    -3.6671     1.3642 C.ar    
  15 C15            1.4438    -4.6943     2.0126 C.ar    
  16 C16            1.7878    -5.0274     3.3091 C.ar    
  17 C17            2.7929    -4.3325     3.9580 C.ar    
  18 C18            3.4530    -3.3046     3.3086 C.ar    
  19 C19            3.1119    -2.9762     2.0101 C.ar    
  20 N20           -1.7726     3.0587     0.0536 N.3     
  21 C21           -2.5049     3.3797    -1.1788 C.3     
  22 C22            1.1510     2.2678     0.0106 C.3     
  23 C23           -3.4785    -2.3958     1.4539 C.3     
  24 Cl24           3.2252    -4.7498     5.5867 Cl      
  25 C25           -4.9326    -2.8717     1.4642 C.3     
  26 C26           -2.6021     3.3105     1.2396 C.3     
  27 H27           -3.6355    -1.4866    -0.4927 H       
  28 H28           -3.0821    -3.1782    -0.5138 H       
  29 H29            1.3656    -4.1920    -0.5682 H       
  30 H30            2.6026    -2.9122    -0.5685 H       
  31 H31            0.6590    -5.2365     1.5060 H       
  32 H32            1.2720    -5.8296     3.8157 H       
  33 H33            4.2377    -2.7618     3.8146 H       
  34 H34            3.6271    -2.1738     1.5030 H       
  35 H35           -3.3620     2.7133    -1.2762 H       
  36 H36           -2.8507     4.4126    -1.1374 H       
  37 H37           -1.8455     3.2514    -2.0371 H       
  38 H38            1.4876     2.4229    -1.0145 H       
  39 H39            0.8798     3.2263     0.4529 H       
  40 H40            1.9535     1.8135     0.5917 H       
  41 H41           -2.8513    -3.1333     1.9547 H       
  42 H42           -3.4047    -1.4417     1.9757 H       
  43 H43           -5.5598    -2.1342     0.9633 H       
  44 H44           -5.0063    -3.8258     0.9423 H       
  45 H45           -5.2675    -2.9941     2.4942 H       
  46 H46           -2.0422     3.0474     2.1370 H       
  47 H47           -2.8726     4.3657     1.2764 H       
  48 H48           -3.5069     2.7051     1.1853 H       
@<TRIPOS>BOND
   1    1    2 1
   2    1   22 1
   3    1    5 1
   4    2    3 2
   5    2    6 1
   6    3    4 1
   7    3    9 1
   8    4    5 2
   9    5   20 1
  10    6    7 am
  11    6   10 2
  12    7    8 am
  13    7   13 1
  14    8    9 am
  15    8   12 2
  16    9   11 1
  17   11   23 1
  18   11   27 1
  19   11   28 1
  20   13   14 1
  21   13   29 1
  22   13   30 1
  23   14   15 ar
  24   14   19 ar
  25   15   16 ar
  26   15   31 1
  27   16   17 ar
  28   16   32 1
  29   17   18 ar
  30   17   24 1
  31   18   19 ar
  32   18   33 1
  33   19   34 1
  34   20   21 1
  35   20   26 1
  36   21   35 1
  37   21   36 1
  38   21   37 1
  39   22   38 1
  40   22   39 1
  41   22   40 1
  42   23   25 1
  43   23   41 1
  44   23   42 1
  45   25   43 1
  46   25   44 1
  47   25   45 1
  48   26   46 1
  49   26   47 1
  50   26   48 1

#	End of record

