#	Name: ASD01916095
#	Creating user name:	WinNT
#	Creation time:	15. 06. 2019 20:06

#	Modifying user name:	WinNT
#	Modification time:	15. 06. 2019 20:06

#	Program:	/corina/corina34_cracker 3.40 0067  02.08.2006

@<TRIPOS>MOLECULE
ASD01916095
  42   44    0    0    0
SMALL
NO_CHARGES


@<TRIPOS>ATOM
   1 C1            -0.3867     1.7170     0.1125 C.ar    
   2 C2            -0.5135     0.3664     0.3819 C.ar    
   3 N3             0.5332    -0.3595     0.7131 N.ar    
   4 C4             1.7493     0.1667     0.8030 C.ar    
   5 C5             1.9568     1.5184     0.5474 C.ar    
   6 C6             0.8691     2.3129     0.1942 C.ar    
   7 C7            -1.8704    -0.2836     0.2956 C.3     
   8 O8             1.0291     3.6359    -0.0638 O.3     
   9 C9             2.2788     4.1599     0.0410 C.ar    
  10 C10            3.2183     3.9713    -0.9675 C.ar    
  11 N11            4.4240     4.4974    -0.8281 N.ar    
  12 C12            4.7390     5.1913     0.2472 C.ar    
  13 N13            3.8772     5.3915     1.2239 N.ar    
  14 C14            2.6495     4.9034     1.1567 C.ar    
  15 C15            2.8952    -0.6933     1.1796 C.2     
  16 N16            2.7010    -2.0035     1.4290 N.am    
  17 O17            4.0102    -0.2175     1.2635 O.2     
  18 C18            3.7912    -2.8339     1.6797 C.ar    
  19 C19            3.5960    -4.2031     1.8205 C.ar    
  20 C20            4.6877    -5.0165     2.0694 C.ar    
  21 C21            5.9417    -4.4298     2.1690 C.ar    
  22 C22            6.0623    -3.0622     2.0182 C.ar    
  23 N23            5.0043    -2.3125     1.7762 N.ar    
  24 C24            7.4209    -2.4190     2.1253 C.3     
  25 C25           -1.8050    -1.4753    -0.6618 C.3     
  26 H26           -1.2517     2.3023    -0.1626 H       
  27 H27            2.9462     1.9450     0.6217 H       
  28 H28           -2.1718    -0.6283     1.2848 H       
  29 H29           -2.5970     0.4399    -0.0740 H       
  30 H30            2.9671     3.4035    -1.8512 H       
  31 H31            5.7321     5.6076     0.3304 H       
  32 H32            1.9483     5.0716     1.9607 H       
  33 H33            1.8023    -2.3683     1.4340 H       
  34 H34            2.6059    -4.6262     1.7373 H       
  35 H35            4.5666    -6.0836     2.1837 H       
  36 H36            6.8140    -5.0363     2.3629 H       
  37 H37            7.8867    -2.3876     1.1403 H       
  38 H38            7.3134    -1.4044     2.5088 H       
  39 H39            8.0454    -2.9998     2.8041 H       
  40 H40           -1.5036    -1.1306    -1.6509 H       
  41 H41           -1.0784    -2.1989    -0.2922 H       
  42 H42           -2.7864    -1.9455    -0.7242 H       
@<TRIPOS>BOND
   1    1    2 ar
   2    1    6 ar
   3    1   26 1
   4    2    3 ar
   5    2    7 1
   6    3    4 ar
   7    4    5 ar
   8    4   15 1
   9    5    6 ar
  10    5   27 1
  11    6    8 1
  12    7   25 1
  13    7   28 1
  14    7   29 1
  15    8    9 1
  16    9   10 ar
  17    9   14 ar
  18   10   11 ar
  19   10   30 1
  20   11   12 ar
  21   12   13 ar
  22   12   31 1
  23   13   14 ar
  24   14   32 1
  25   15   16 am
  26   15   17 2
  27   16   18 1
  28   16   33 1
  29   18   19 ar
  30   18   23 ar
  31   19   20 ar
  32   19   34 1
  33   20   21 ar
  34   20   35 1
  35   21   22 ar
  36   21   36 1
  37   22   23 ar
  38   22   24 1
  39   24   37 1
  40   24   38 1
  41   24   39 1
  42   25   40 1
  43   25   41 1
  44   25   42 1

#	End of record

