#	Name: ASD03730174
#	Creating user name:	WinNT
#	Creation time:	15. 06. 2019 20:44

#	Modifying user name:	WinNT
#	Modification time:	15. 06. 2019 20:44

#	Program:	/corina/corina34_cracker 3.40 0067  02.08.2006

@<TRIPOS>MOLECULE
ASD03730174
  41   44    0    0    0
SMALL
NO_CHARGES


@<TRIPOS>ATOM
   1 C1            -0.0184     1.5028     0.0103 C.2     
   2 C2             0.0021    -0.0041     0.0020 C.3     
   3 O3             1.0197     2.1211     0.0037 O.2     
   4 O4            -1.1898     2.1580     0.0194 O.3     
   5 O5             5.6626    -1.2147     1.3845 O.3     
   6 C6             4.5874    -0.2799     1.1735 C.3     
   7 C7             3.4662    -1.1774     0.6321 C.3     
   8 C8             3.8248    -2.5376     1.1675 C.ar    
   9 C9             5.1456    -2.4575     1.6004 C.ar    
  10 C10            5.7395    -3.5829     2.1633 C.ar    
  11 C11            5.0299    -4.7623     2.2797 C.ar    
  12 C12            3.7182    -4.8340     1.8364 C.ar    
  13 C13            3.1198    -3.7163     1.2799 C.ar    
  14 N14            1.3897    -0.4735    -0.0138 N.am    
  15 C15            2.1130    -0.7211     1.0965 C.2     
  16 C16            3.4020    -1.1519    -0.8662 C.ar    
  17 C17            4.3036    -1.4548    -1.8631 C.ar    
  18 C18            3.9364    -1.3271    -3.1919 C.ar    
  19 C19            2.6632    -0.8956    -3.5154 C.ar    
  20 C20            1.7572    -0.5916    -2.5208 C.ar    
  21 C21            2.1175    -0.7168    -1.1812 C.ar    
  22 O22            1.7431    -0.5996     2.2452 O.2     
  23 F23            5.6160    -5.8496     2.8269 F       
  24 F24            3.0268    -5.9894     1.9472 F       
  25 Br25           6.0438    -2.0445    -1.4161 Br      
  26 C26           -1.1335     3.6089     0.0270 C.3     
  27 C27           -2.5551     4.1744     0.0369 C.3     
  28 H28           -0.4983    -0.3791     0.8948 H       
  29 H29           -0.5153    -0.3696    -0.8850 H       
  30 H30            4.2902     0.1864     2.1128 H       
  31 H31            4.8688     0.4739     0.4381 H       
  32 H32            6.7610    -3.5341     2.5107 H       
  33 H33            2.0982    -3.7683     0.9335 H       
  34 H34            4.6428    -1.5637    -3.9738 H       
  35 H35            2.3767    -0.7959    -4.5519 H       
  36 H36            0.7648    -0.2545    -2.7817 H       
  37 H37           -0.6017     3.9472     0.9164 H       
  38 H38           -0.6102     3.9569    -0.8636 H       
  39 H39           -3.0784     3.8265     0.9275 H       
  40 H40           -2.5128     5.2636     0.0426 H       
  41 H41           -3.0869     3.8361    -0.8525 H       
@<TRIPOS>BOND
   1    1    2 1
   2    1    3 2
   3    1    4 1
   4    2   14 1
   5    2   28 1
   6    2   29 1
   7    4   26 1
   8    5    6 1
   9    5    9 1
  10    6    7 1
  11    6   30 1
  12    6   31 1
  13    7    8 1
  14    7   15 1
  15    7   16 1
  16    8    9 ar
  17    8   13 ar
  18    9   10 ar
  19   10   11 ar
  20   10   32 1
  21   11   12 ar
  22   11   23 1
  23   12   13 ar
  24   12   24 1
  25   13   33 1
  26   14   15 am
  27   14   21 1
  28   15   22 2
  29   16   17 ar
  30   16   21 ar
  31   17   18 ar
  32   17   25 1
  33   18   19 ar
  34   18   34 1
  35   19   20 ar
  36   19   35 1
  37   20   21 ar
  38   20   36 1
  39   26   27 1
  40   26   37 1
  41   26   38 1
  42   27   39 1
  43   27   40 1
  44   27   41 1

#	End of record

