#	Name: ASD01901543
#	Creating user name:	WinNT
#	Creation time:	15. 06. 2019 19:53

#	Modifying user name:	WinNT
#	Modification time:	15. 06. 2019 19:53

#	Program:	/corina/corina34_cracker 3.40 0067  02.08.2006

@<TRIPOS>MOLECULE
ASD01901543
  33   36    0    0    0
SMALL
NO_CHARGES


@<TRIPOS>ATOM
   1 C1            -0.0337     0.6178     0.5514 C.3     
   2 C2            -0.0079    -0.8813     0.2467 C.3     
   3 C3            -1.4200    -1.3994     0.1538 C.2     
   4 N4            -2.0257    -1.8403     1.2019 N.2     
   5 S5            -3.5822    -2.3406     0.7510 S.3     
   6 C6            -3.4022    -1.9287    -0.9560 C.ar    
   7 C7            -4.2364    -2.0234    -2.0596 C.ar    
   8 C8            -3.7486    -1.5913    -3.2867 C.ar    
   9 N9            -4.5436    -1.6620    -4.4332 N.pl3   
  10 C10           -5.9370    -1.6301    -4.3209 C.2     
  11 N11           -6.6170    -1.4308    -3.2231 N.2     
  12 N12           -7.9884    -1.4664    -3.4960 N.pl3   
  13 H13           -8.6952    -1.3451    -2.8429 H       
  14 C14           -8.1739    -1.6998    -4.8331 C.ar    
  15 C15           -9.2999    -1.8328    -5.6449 C.ar    
  16 C16           -9.1097    -2.0717    -6.9917 C.ar    
  17 C17           -7.8197    -2.1721    -7.4960 C.ar    
  18 N18           -6.7693    -2.0448    -6.7174 N.ar    
  19 C19           -6.8959    -1.8076    -5.4139 C.ar    
  20 C20           -2.4492    -1.0847    -3.3524 C.ar    
  21 N21           -1.6844    -1.0072    -2.2946 N.ar    
  22 C22           -2.0999    -1.4039    -1.0773 C.ar    
  23 H23            0.9877     0.9925     0.6186 H       
  24 H24           -0.5612     1.1416    -0.2459 H       
  25 H25           -0.5459     0.7873     1.4984 H       
  26 H26            0.5043    -1.0508    -0.7004 H       
  27 H27            0.5195    -1.4051     1.0439 H       
  28 H28           -5.2360    -2.4218    -1.9681 H       
  29 H29           -4.1290    -1.7333    -5.3073 H       
  30 H30          -10.2942    -1.7514    -5.2313 H       
  31 H31           -9.9597    -2.1803    -7.6492 H       
  32 H32           -7.6770    -2.3591    -8.5501 H       
  33 H33           -2.0648    -0.7478    -4.3038 H       
@<TRIPOS>BOND
   1    1    2 1
   2    1   23 1
   3    1   24 1
   4    1   25 1
   5    2    3 1
   6    2   26 1
   7    2   27 1
   8    3   22 1
   9    3    4 2
  10    4    5 1
  11    5    6 1
  12    6   22 ar
  13    6    7 ar
  14    7    8 ar
  15    7   28 1
  16    8    9 1
  17    8   20 ar
  18    9   10 1
  19    9   29 1
  20   10   19 1
  21   10   11 2
  22   11   12 1
  23   12   13 1
  24   12   14 1
  25   14   19 ar
  26   14   15 ar
  27   15   16 ar
  28   15   30 1
  29   16   17 ar
  30   16   31 1
  31   17   18 ar
  32   17   32 1
  33   18   19 ar
  34   20   21 ar
  35   20   33 1
  36   21   22 ar

#	End of record

