#	Name: ASD01918042
#	Creating user name:	WinNT
#	Creation time:	15. 06. 2019 20:10

#	Modifying user name:	WinNT
#	Modification time:	15. 06. 2019 20:10

#	Program:	/corina/corina34_cracker 3.40 0067  02.08.2006

@<TRIPOS>MOLECULE
ASD01918042
  47   50    0    0    0
SMALL
NO_CHARGES


@<TRIPOS>ATOM
   1 N1             4.8262    -0.4046    -2.1399 N.ar    
   2 C2             5.2920     0.2912    -3.1578 C.ar    
   3 C3             5.1769     1.6741    -3.1857 C.ar    
   4 C4             4.5606     2.3230    -2.1223 C.ar    
   5 C5             4.0820     1.5533    -1.0675 C.ar    
   6 C6             4.2358     0.1749    -1.1135 C.ar    
   7 O7             3.4726     2.1431    -0.0058 O.3     
   8 C8             3.4501     3.5022     0.0436 C.2     
   9 N9             2.1949     5.5134    -0.0224 N.pl3   
  10 C10            2.2666     4.1537    -0.0662 C.2     
  11 C11            4.6508     4.2061     0.2128 C.2     
  12 C12            4.6244     5.5939     0.2628 C.2     
  13 C13            3.3312     6.2681     0.1353 C.2     
  14 C14            5.8647     6.3668     0.4399 C.2     
  15 N15            5.8191     7.7130     0.4860 N.am    
  16 C16            6.9755     8.4402     0.7588 C.ar    
  17 O17            6.9308     5.7905     0.5446 O.2     
  18 C18            1.1684     6.4045    -0.1048 C.2     
  19 N19            1.6810     7.6035    -0.0091 N.2     
  20 N20            2.9575     7.5322     0.1394 N.2     
  21 O21            5.6608     2.3842    -4.2387 O.3     
  22 N22            8.1359     7.8116     0.8647 N.ar    
  23 C23            6.9015     9.8201     0.9117 C.ar    
  24 C24            8.0579    10.5303     1.1824 C.ar    
  25 C25            9.2531     9.8329     1.2913 C.ar    
  26 C26            9.2542     8.4622     1.1220 C.ar    
  27 C27            6.2806     1.6428    -5.2913 C.3     
  28 C28           10.5494     7.7000     1.2333 C.3     
  29 C29           10.4012     6.5926     2.2786 C.3     
  30 H30            5.7695    -0.2210    -3.9800 H       
  31 H31            4.4564     3.3979    -2.1150 H       
  32 H32            3.8673    -0.4305    -0.2985 H       
  33 H33            1.3592     3.5815    -0.1916 H       
  34 H34            5.5865     3.6746     0.3037 H       
  35 H35            4.9810     8.1755     0.3292 H       
  36 H36            0.1231     6.1650    -0.2331 H       
  37 H37            5.9543    10.3308     0.8200 H       
  38 H38            8.0311    11.6029     1.3059 H       
  39 H39           10.1735    10.3573     1.5019 H       
  40 H40            5.5605     0.9433    -5.7159 H       
  41 H41            6.6217     2.3286    -6.0668 H       
  42 H42            7.1325     1.0908    -4.8941 H       
  43 H43           10.7948     7.2577     0.2678 H       
  44 H44           11.3463     8.3798     1.5347 H       
  45 H45           10.1558     7.0348     3.2442 H       
  46 H46            9.6043     5.9127     1.9773 H       
  47 H47           11.3381     6.0413     2.3591 H       
@<TRIPOS>BOND
   1    1    2 ar
   2    1    6 ar
   3    2    3 ar
   4    2   30 1
   5    3    4 ar
   6    3   21 1
   7    4    5 ar
   8    4   31 1
   9    5    6 ar
  10    5    7 1
  11    6   32 1
  12    7    8 1
  13    8   11 1
  14    8   10 2
  15    9   10 1
  16    9   18 1
  17    9   13 1
  18   10   33 1
  19   11   12 2
  20   11   34 1
  21   12   13 1
  22   12   14 1
  23   13   20 2
  24   14   15 am
  25   14   17 2
  26   15   16 1
  27   15   35 1
  28   16   23 ar
  29   16   22 ar
  30   18   19 2
  31   18   36 1
  32   19   20 1
  33   21   27 1
  34   22   26 ar
  35   23   24 ar
  36   23   37 1
  37   24   25 ar
  38   24   38 1
  39   25   26 ar
  40   25   39 1
  41   26   28 1
  42   27   40 1
  43   27   41 1
  44   27   42 1
  45   28   29 1
  46   28   43 1
  47   28   44 1
  48   29   45 1
  49   29   46 1
  50   29   47 1

#	End of record

