#	Name: ASD01810608
#	Creating user name:	WinNT
#	Creation time:	15. 06. 2019 19:24

#	Modifying user name:	WinNT
#	Modification time:	15. 06. 2019 19:24

#	Program:	/corina/corina34_cracker 3.40 0067  02.08.2006

@<TRIPOS>MOLECULE
ASD01810608
  46   49    0    0    0
SMALL
NO_CHARGES


@<TRIPOS>ATOM
   1 N1            -0.0153     1.2757     0.0091 N.pl3   
   2 N2             0.0021    -0.0041     0.0020 N.2     
   3 C3             1.0982    -0.7287    -0.0123 C.2     
   4 C4             2.4105    -0.0545    -0.0212 C.2     
   5 C5             2.3845     1.4198    -0.0130 C.ar    
   6 C6             3.5501     2.1806    -0.0195 C.ar    
   7 C7             3.4606     3.5562    -0.0108 C.ar    
   8 C8             2.2197     4.1779     0.0047 C.ar    
   9 C9             1.0579     3.4368     0.0114 C.ar    
  10 C10            1.1237     2.0470     0.0023 C.ar    
  11 C11            1.0175    -2.1997    -0.0190 C.2     
  12 O12            2.0351    -2.8640    -0.0323 O.2     
  13 O13           -0.1849    -2.8088    -0.0104 O.3     
  14 S14            3.8794    -0.9336    -0.0394 S.2     
  15 C15           -1.3140     1.9535     0.0188 C.3     
  16 C16           -1.7659     2.1936    -1.3987 C.ar    
  17 C17           -2.5273     1.2412    -2.0509 C.ar    
  18 C18           -2.9430     1.4584    -3.3500 C.ar    
  19 C19           -2.5960     2.6347    -4.0009 C.ar    
  20 C20           -1.8319     3.5893    -3.3433 C.ar    
  21 C21           -1.4232     3.3684    -2.0425 C.ar    
  22 N22           -3.0160     2.8579    -5.3195 N.pl3   
  23 N23           -3.7869     1.9850    -6.0982 N.2     
  24 C24           -3.9751     2.5389    -7.2689 C.2     
  25 C25           -3.3312     3.7811    -7.2744 C.2     
  26 C26           -2.7537     3.9564    -6.0632 C.2     
  27 C27           -0.1884    -4.2607    -0.0177 C.3     
  28 C28           -1.6321    -4.7673    -0.0062 C.3     
  29 H29            4.5159     1.6975    -0.0309 H       
  30 H30            4.3606     4.1532    -0.0158 H       
  31 H31            2.1640     5.2565     0.0121 H       
  32 H32            0.0989     3.9334     0.0238 H       
  33 H33           -2.0455     1.3298     0.5326 H       
  34 H34           -1.2220     2.9078     0.5374 H       
  35 H35           -2.7969     0.3264    -1.5440 H       
  36 H36           -3.5370     0.7139    -3.8591 H       
  37 H37           -1.5604     4.5052    -3.8470 H       
  38 H38           -0.8320     4.1122    -1.5291 H       
  39 H39           -4.5312     2.1106    -8.0897 H       
  40 H40           -3.3036     4.4788    -8.0983 H       
  41 H41           -2.1838     4.8179    -5.7479 H       
  42 H42            0.3158    -4.6208    -0.9145 H       
  43 H43            0.3332    -4.6298     0.8654 H       
  44 H44           -2.1363    -4.4072     0.8906 H       
  45 H45           -2.1537    -4.3982    -0.8893 H       
  46 H46           -1.6348    -5.8573    -0.0117 H       
@<TRIPOS>BOND
   1    1    2 1
   2    1   10 1
   3    1   15 1
   4    2    3 2
   5    3    4 1
   6    3   11 1
   7    4    5 1
   8    4   14 2
   9    5    6 ar
  10    5   10 ar
  11    6    7 ar
  12    6   29 1
  13    7    8 ar
  14    7   30 1
  15    8    9 ar
  16    8   31 1
  17    9   10 ar
  18    9   32 1
  19   11   12 2
  20   11   13 1
  21   13   27 1
  22   15   16 1
  23   15   33 1
  24   15   34 1
  25   16   17 ar
  26   16   21 ar
  27   17   18 ar
  28   17   35 1
  29   18   19 ar
  30   18   36 1
  31   19   20 ar
  32   19   22 1
  33   20   21 ar
  34   20   37 1
  35   21   38 1
  36   22   23 1
  37   22   26 1
  38   23   24 2
  39   24   25 1
  40   24   39 1
  41   25   26 2
  42   25   40 1
  43   26   41 1
  44   27   28 1
  45   27   42 1
  46   27   43 1
  47   28   44 1
  48   28   45 1
  49   28   46 1

#	End of record

