#	Name: ASD03330487
#	Creating user name:	WinNT
#	Creation time:	15. 06. 2019 20:37

#	Modifying user name:	WinNT
#	Modification time:	15. 06. 2019 20:37

#	Program:	/corina/corina34_cracker 3.40 0067  02.08.2006

@<TRIPOS>MOLECULE
ASD03330487
  64   66    0    0    0
SMALL
NO_CHARGES


@<TRIPOS>ATOM
   1 C1             0.5998     1.5986     0.4195 C.ar    
   2 C2             0.4650     0.1289     0.3201 C.2     
   3 N3            -0.6260    -0.5960     0.6911 N.pl3   
   4 C4            -0.3493    -1.9063     0.4407 C.2     
   5 C5             0.9037    -1.9602    -0.0798 C.2     
   6 N6             1.3759    -0.6947    -0.1463 N.2     
   7 C7             1.6183    -3.1780    -0.5016 C.2     
   8 N8             2.8654    -3.0875    -1.0045 N.am    
   9 C9            -0.2573     2.3255     1.2462 C.ar    
  10 O10            1.0826    -4.2647    -0.3960 O.2     
  11 C11            3.5758    -4.2981    -1.4239 C.3     
  12 C12            3.1804    -4.6500    -2.8594 C.3     
  13 C13            5.0619    -4.0572    -1.3569 C.2     
  14 C14            3.4442    -3.4491    -3.7700 C.3     
  15 N15            5.9025    -5.0880    -1.1391 N.am    
  16 C16            4.0079    -5.8445    -3.3381 C.3     
  17 C17           -1.8868    -0.1095     1.2567 C.3     
  18 C18           -2.9483    -1.2051     1.1079 C.3     
  19 C19           -2.4020    -2.5288     1.6503 C.3     
  20 C20           -1.3001    -3.0434     0.7140 C.3     
  21 C21            1.6936    -5.0082    -2.9057 C.3     
  22 O22            5.5014    -2.9358    -1.4989 O.2     
  23 C23           -0.1270     3.6978     1.3352 C.ar    
  24 C24            0.8541     4.3520     0.6035 C.ar    
  25 C25            1.7064     3.6329    -0.2187 C.ar    
  26 C26            1.5883     2.2617    -0.3089 C.ar    
  27 F27            0.9781     5.6943     0.6928 F       
  28 F28           -0.9558     4.4039     2.1351 F       
  29 C29            7.3350    -4.8395    -0.9591 C.3     
  30 C30            7.5464    -3.9280     0.2515 C.3     
  31 C31            8.0582    -6.1681    -0.7296 C.3     
  32 C32            7.8965    -4.1628    -2.2112 C.3     
  33 H33            3.2927    -2.2207    -1.0888 H       
  34 H34           -1.0212     1.8164     1.8151 H       
  35 H35            3.3111    -5.1225    -0.7617 H       
  36 H36            4.5034    -3.1939    -3.7370 H       
  37 H37            3.1625    -3.6997    -4.7927 H       
  38 H38            2.8547    -2.5981    -3.4290 H       
  39 H39            5.5590    -5.9943    -1.1015 H       
  40 H40            3.7768    -6.7157    -2.7252 H       
  41 H41            3.7678    -6.0589    -4.3795 H       
  42 H42            5.0688    -5.6100    -3.2508 H       
  43 H43           -1.7479     0.1239     2.3123 H       
  44 H44           -2.2067     0.7845     0.7214 H       
  45 H45           -3.8405    -0.9242     1.6676 H       
  46 H46           -3.2035    -1.3223     0.0547 H       
  47 H47           -1.9888    -2.3711     2.6465 H       
  48 H48           -3.2076    -3.2613     1.7015 H       
  49 H49           -1.7424    -3.3863    -0.2214 H       
  50 H50           -0.7649    -3.8641     1.1915 H       
  51 H51            1.1041    -4.1572    -2.5647 H       
  52 H52            1.4120    -5.2589    -3.9284 H       
  53 H53            1.5057    -5.8637    -2.2570 H       
  54 H54            2.4678     4.1467    -0.7867 H       
  55 H55            2.2536     1.7028    -0.9503 H       
  56 H56            7.1463    -4.4101     1.1435 H       
  57 H57            8.6122    -3.7431     0.3854 H       
  58 H58            7.0311    -2.9815     0.0880 H       
  59 H59            7.9076    -6.8174    -1.5920 H       
  60 H60            9.1240    -5.9832    -0.5957 H       
  61 H61            7.6582    -6.6501     0.1624 H       
  62 H62            7.3813    -3.2163    -2.3747 H       
  63 H63            8.9623    -3.9779    -2.0773 H       
  64 H64            7.7459    -4.8121    -3.0736 H       
@<TRIPOS>BOND
   1    1    2 1
   2    1    9 ar
   3    1   26 ar
   4    2    3 1
   5    2    6 2
   6    3    4 1
   7    3   17 1
   8    4    5 2
   9    4   20 1
  10    5    6 1
  11    5    7 1
  12    7    8 am
  13    7   10 2
  14    8   11 1
  15    8   33 1
  16    9   23 ar
  17    9   34 1
  18   11   12 1
  19   11   13 1
  20   11   35 1
  21   12   14 1
  22   12   16 1
  23   12   21 1
  24   13   15 am
  25   13   22 2
  26   14   36 1
  27   14   37 1
  28   14   38 1
  29   15   29 1
  30   15   39 1
  31   16   40 1
  32   16   41 1
  33   16   42 1
  34   17   18 1
  35   17   43 1
  36   17   44 1
  37   18   19 1
  38   18   45 1
  39   18   46 1
  40   19   20 1
  41   19   47 1
  42   19   48 1
  43   20   49 1
  44   20   50 1
  45   21   51 1
  46   21   52 1
  47   21   53 1
  48   23   24 ar
  49   23   28 1
  50   24   25 ar
  51   24   27 1
  52   25   26 ar
  53   25   54 1
  54   26   55 1
  55   29   30 1
  56   29   31 1
  57   29   32 1
  58   30   56 1
  59   30   57 1
  60   30   58 1
  61   31   59 1
  62   31   60 1
  63   31   61 1
  64   32   62 1
  65   32   63 1
  66   32   64 1

#	End of record

