#	Name: ASD01870668
#	Creating user name:	WinNT
#	Creation time:	15. 06. 2019 19:39

#	Modifying user name:	WinNT
#	Modification time:	15. 06. 2019 19:39

#	Program:	/corina/corina34_cracker 3.40 0067  02.08.2006

@<TRIPOS>MOLECULE
ASD01870668
  34   37    0    0    0
SMALL
NO_CHARGES


@<TRIPOS>ATOM
   1 C1            -0.0174     1.4474     0.0142 C.2     
   2 C2             0.0021    -0.0041    -0.0008 C.2     
   3 C3             1.2283    -0.5353    -0.0717 C.2     
   4 S4             2.4387     0.6593    -0.1250 S.3     
   5 C5             1.2693     1.9672    -0.0497 C.2     
   6 C6            -1.2300    -0.8268     0.0580 C.ar    
   7 C7            -1.4323    -1.8508    -0.8659 C.ar    
   8 C8            -2.5807    -2.6137    -0.8060 C.ar    
   9 C9            -3.5302    -2.3637     0.1685 C.ar    
  10 C10           -3.3349    -1.3489     1.0880 C.ar    
  11 C11           -2.1878    -0.5830     1.0410 C.ar    
  12 N12           -1.0679     2.3086     0.0840 N.2     
  13 C13            1.4388     3.3735    -0.0448 C.2     
  14 N14            0.3426     4.1567     0.0219 N.am    
  15 C15           -0.8948     3.5944     0.0862 C.2     
  16 C16            0.4784     5.5507     0.0290 C.ar    
  17 C17            1.0617     6.1874     1.1165 C.ar    
  18 C18            1.1947     7.5621     1.1202 C.ar    
  19 C19            0.7477     8.3044     0.0425 C.ar    
  20 C20            0.1660     7.6733    -1.0418 C.ar    
  21 C21            0.0354     6.2984    -1.0540 C.ar    
  22 O22            2.5532     3.8662    -0.0993 O.2     
  23 H23            1.4262    -1.5968    -0.0922 H       
  24 H24           -0.6918    -2.0466    -1.6274 H       
  25 H25           -2.7387    -3.4071    -1.5215 H       
  26 H26           -4.4276    -2.9630     0.2113 H       
  27 H27           -4.0797    -1.1580     1.8464 H       
  28 H28           -2.0344     0.2064     1.7619 H       
  29 H29           -1.7598     4.2386     0.1430 H       
  30 H30            1.4106     5.6082     1.9587 H       
  31 H31            1.6479     8.0579     1.9659 H       
  32 H32            0.8528     9.3792     0.0478 H       
  33 H33           -0.1827     8.2558    -1.8817 H       
  34 H34           -0.4146     5.8057    -1.9032 H       
@<TRIPOS>BOND
   1    1    2 1
   2    1    5 2
   3    1   12 1
   4    2    3 2
   5    2    6 1
   6    3    4 1
   7    3   23 1
   8    4    5 1
   9    5   13 1
  10    6    7 ar
  11    6   11 ar
  12    7    8 ar
  13    7   24 1
  14    8    9 ar
  15    8   25 1
  16    9   10 ar
  17    9   26 1
  18   10   11 ar
  19   10   27 1
  20   11   28 1
  21   12   15 2
  22   13   14 am
  23   13   22 2
  24   14   15 1
  25   14   16 1
  26   15   29 1
  27   16   17 ar
  28   16   21 ar
  29   17   18 ar
  30   17   30 1
  31   18   19 ar
  32   18   31 1
  33   19   20 ar
  34   19   32 1
  35   20   21 ar
  36   20   33 1
  37   21   34 1

#	End of record

