#	Name: ASD07300757
#	Creating user name:	WinNT
#	Creation time:	15. 06. 2019 21:10

#	Modifying user name:	WinNT
#	Modification time:	15. 06. 2019 21:10

#	Program:	/corina/corina34_cracker 3.40 0067  02.08.2006

@<TRIPOS>MOLECULE
ASD07300757
  46   49    0    0    0
SMALL
NO_CHARGES


@<TRIPOS>ATOM
   1 C1            -0.0171     1.4128     0.0098 C.2     
   2 C2             0.0021    -0.0041     0.0020 C.2     
   3 N3             1.1791     2.0878     0.0020 N.pl3   
   4 N4             1.1572    -0.6388    -0.0124 N.2     
   5 C5             2.3166     0.0279    -0.0199 C.2     
   6 C6             2.3504     1.3749    -0.0134 C.2     
   7 N7            -0.9947     2.3030     0.0292 N.2     
   8 C8            -0.4768     3.5290     0.0284 C.2     
   9 C9             0.8863     3.4228     0.0124 C.2     
  10 N10           -1.1860    -0.7178     0.0100 N.pl3   
  11 C11           -1.3053    -2.1831     0.0033 C.3     
  12 C12           -2.8112    -2.5202    -0.0098 C.3     
  13 C13           -3.4516    -1.2275    -0.5810 C.3     
  14 C14           -2.5392    -0.1334     0.0330 C.3     
  15 C15           -1.2601     4.8163     0.0464 C.3     
  16 N16            2.8674     6.4264    -0.4618 N.pl3   
  17 N17            3.6159     5.7622     0.5173 N.2     
  18 C18            3.0197     4.6353     0.8038 C.2     
  19 C19            1.8585     4.5395     0.0101 C.2     
  20 C20            1.7942     5.6646    -0.7618 C.2     
  21 C21            3.1900     7.7270    -1.0541 C.3     
  22 C22            3.3548     8.7663     0.0566 C.3     
  23 O23            3.6694    10.0349    -0.5211 O.3     
  24 C24            3.8450    11.0817     0.4356 C.3     
  25 H25            3.2445    -0.5246    -0.0317 H       
  26 H26            3.2985     1.8921    -0.0200 H       
  27 H27           -0.8266    -2.5900    -0.8874 H       
  28 H28           -0.8406    -2.5970     0.8982 H       
  29 H29           -3.0105    -3.3701    -0.6625 H       
  30 H30           -3.1716    -2.7153     1.0002 H       
  31 H31           -3.4031    -1.2156    -1.6699 H       
  32 H32           -4.4795    -1.1154    -0.2361 H       
  33 H33           -2.8410     0.0845     1.0575 H       
  34 H34           -2.5720     0.7716    -0.5736 H       
  35 H35           -1.4340     5.1214     1.0783 H       
  36 H36           -0.6961     5.5920    -0.4717 H       
  37 H37           -2.2166     4.6667    -0.4544 H       
  38 H38            3.3579     3.9042     1.5233 H       
  39 H39            1.0244     5.9018    -1.4812 H       
  40 H40            4.1188     7.6486    -1.6191 H       
  41 H41            2.3837     8.0325    -1.7209 H       
  42 H42            2.4260     8.8447     0.6216 H       
  43 H43            4.1611     8.4607     0.7234 H       
  44 H44            2.9264    11.2082     1.0085 H       
  45 H45            4.6614    10.8242     1.1103 H       
  46 H46            4.0811    12.0114    -0.0822 H       
@<TRIPOS>BOND
   1    1    2 1
   2    1    3 1
   3    1    7 2
   4    2    4 2
   5    2   10 1
   6    3    6 1
   7    3    9 1
   8    4    5 1
   9    5    6 2
  10    5   25 1
  11    6   26 1
  12    7    8 1
  13    8    9 2
  14    8   15 1
  15    9   19 1
  16   10   11 1
  17   10   14 1
  18   11   12 1
  19   11   27 1
  20   11   28 1
  21   12   13 1
  22   12   29 1
  23   12   30 1
  24   13   14 1
  25   13   31 1
  26   13   32 1
  27   14   33 1
  28   14   34 1
  29   15   35 1
  30   15   36 1
  31   15   37 1
  32   16   17 1
  33   16   20 1
  34   16   21 1
  35   17   18 2
  36   18   19 1
  37   18   38 1
  38   19   20 2
  39   20   39 1
  40   21   22 1
  41   21   40 1
  42   21   41 1
  43   22   23 1
  44   22   42 1
  45   22   43 1
  46   23   24 1
  47   24   44 1
  48   24   45 1
  49   24   46 1

#	End of record

