#	Name: ASD03331985
#	Creating user name:	WinNT
#	Creation time:	15. 06. 2019 20:40

#	Modifying user name:	WinNT
#	Modification time:	15. 06. 2019 20:40

#	Program:	/corina/corina34_cracker 3.40 0067  02.08.2006

@<TRIPOS>MOLECULE
ASD03331985
  54   55    0    0    0
SMALL
NO_CHARGES


@<TRIPOS>ATOM
   1 C1             0.1608     1.2135     0.7160 C.2     
   2 N2             0.2487    -0.1104     0.9849 N.pl3   
   3 C3             1.5750    -0.4310     1.0451 C.2     
   4 N4             2.2781     0.6601     0.8402 N.2     
   5 C5             1.4336     1.6939     0.6369 C.2     
   6 C6             1.8194     3.0921     0.3764 C.2     
   7 O7             0.9621     3.9382     0.2079 O.2     
   8 N8             3.1222     3.4333     0.3249 N.am    
   9 C9             3.5058     4.8233     0.0659 C.3     
  10 C10            3.5320     5.0724    -1.4435 C.3     
  11 C11            4.4509     4.0487    -2.1134 C.3     
  12 C12            4.8741     5.0824     0.6417 C.2     
  13 C13            2.1167     4.9336    -2.0079 C.3     
  14 C14            4.0547     6.4838    -1.7184 C.3     
  15 O15            5.5413     4.1594     1.0588 O.2     
  16 N16            5.3566     6.3398     0.6930 N.am    
  17 C17            6.7175     6.5830     1.1777 C.3     
  18 C18           -0.8866    -1.0145     1.1886 C.3     
  19 C19           -1.9150    -0.7884     0.0761 C.3     
  20 C20           -2.8758     0.3250     0.4811 C.3     
  21 N21           -2.1936     1.3406     1.2860 N.3     
  22 C22           -1.1162     1.9904     0.5252 C.3     
  23 C23           -3.1472     2.3326     1.8003 C.3     
  24 C24            2.1248    -1.7739     1.2972 C.2     
  25 C25            3.4401    -1.9575     1.3317 C.2     
  26 H26            3.8060     2.7585     0.4592 H       
  27 H27            2.7827     5.4926     0.5321 H       
  28 H28            4.0785     3.0432    -1.9175 H       
  29 H29            4.4696     4.2262    -3.1887 H       
  30 H30            5.4592     4.1476    -1.7112 H       
  31 H31            1.4621     5.6629    -1.5307 H       
  32 H32            2.1354     5.1111    -3.0832 H       
  33 H33            1.7444     3.9281    -1.8120 H       
  34 H34            5.0152     6.6188    -1.2211 H       
  35 H35            4.1789     6.6224    -2.7924 H       
  36 H36            3.3423     7.2156    -1.3376 H       
  37 H37            4.8027     7.0838     0.4091 H       
  38 H38            7.4290     6.0537     0.5438 H       
  39 H39            6.9286     7.6519     1.1468 H       
  40 H40            6.8076     6.2243     2.2030 H       
  41 H41           -0.5396    -2.0473     1.1595 H       
  42 H42           -1.3457    -0.8105     2.1559 H       
  43 H43           -1.3997    -0.5065    -0.8421 H       
  44 H44           -2.4757    -1.7080    -0.0916 H       
  45 H45           -3.2808     0.7924    -0.4165 H       
  46 H46           -3.6938    -0.1017     1.0616 H       
  47 H47           -0.9796     3.0101     0.8854 H       
  48 H48           -1.3770     2.0085    -0.5330 H       
  49 H49           -3.8898     1.8339     2.4231 H       
  50 H50           -2.6142     3.0749     2.3944 H       
  51 H51           -3.6451     2.8251     0.9651 H       
  52 H52            1.4586    -2.6094     1.4541 H       
  53 H53            4.1062    -1.1219     1.1748 H       
  54 H54            3.8432    -2.9422     1.5166 H       
@<TRIPOS>BOND
   1    1    2 1
   2    1    5 2
   3    1   22 1
   4    2    3 1
   5    2   18 1
   6    3    4 2
   7    3   24 1
   8    4    5 1
   9    5    6 1
  10    6    7 2
  11    6    8 am
  12    8    9 1
  13    8   26 1
  14    9   10 1
  15    9   12 1
  16    9   27 1
  17   10   11 1
  18   10   13 1
  19   10   14 1
  20   11   28 1
  21   11   29 1
  22   11   30 1
  23   12   15 2
  24   12   16 am
  25   13   31 1
  26   13   32 1
  27   13   33 1
  28   14   34 1
  29   14   35 1
  30   14   36 1
  31   16   17 1
  32   16   37 1
  33   17   38 1
  34   17   39 1
  35   17   40 1
  36   18   19 1
  37   18   41 1
  38   18   42 1
  39   19   20 1
  40   19   43 1
  41   19   44 1
  42   20   21 1
  43   20   45 1
  44   20   46 1
  45   21   22 1
  46   21   23 1
  47   22   47 1
  48   22   48 1
  49   23   49 1
  50   23   50 1
  51   23   51 1
  52   24   25 2
  53   24   52 1
  54   25   53 1
  55   25   54 1

#	End of record

