#	Name: ASD03540513
#	Creating user name:	WinNT
#	Creation time:	15. 06. 2019 20:43

#	Modifying user name:	WinNT
#	Modification time:	15. 06. 2019 20:43

#	Program:	/corina/corina34_cracker 3.40 0067  02.08.2006

@<TRIPOS>MOLECULE
ASD03540513
  71   74    0    0    0
SMALL
NO_CHARGES


@<TRIPOS>ATOM
   1 C1            10.7817    -3.8967    -2.0629 C.2     
   2 N2            10.1468    -2.7289    -1.8402 N.am    
   3 O3            10.2027    -4.9484    -1.8757 O.2     
   4 O4            12.0558    -3.8979    -2.4981 O.3     
   5 C5             8.7960    -2.7246    -1.4956 C.ar    
   6 C6             8.1778    -1.5289    -1.1474 C.ar    
   7 C7             6.8367    -1.5388    -0.8076 C.ar    
   8 C8             6.1571    -2.7494    -0.8278 C.ar    
   9 C9             6.8343    -3.8988    -1.1836 C.ar    
  10 N10            8.1125    -3.8579    -1.5082 N.ar    
  11 C11            4.6957    -2.8083    -0.4647 C.3     
  12 N12            3.1441    -6.0982     0.1187 N.am    
  13 C13            3.4716    -4.8998    -0.3932 C.2     
  14 N14            4.3989    -4.1009     0.1577 N.am    
  15 C15            5.0638    -4.4670     1.2751 C.2     
  16 C16            4.7448    -5.7733     1.8801 C.ar    
  17 C17            5.3850    -6.2212     3.0286 C.ar    
  18 C18            5.0442    -7.4654     3.5577 C.ar    
  19 C19            4.0665    -8.2498     2.9332 C.ar    
  20 C20            3.4370    -7.8089     1.8035 C.ar    
  21 C21            3.7635    -6.5720     1.2620 C.ar    
  22 O22            5.9032    -3.7390     1.7686 O.2     
  23 O23            2.9029    -4.5224    -1.3992 O.2     
  24 C24            4.3686    -1.6821     0.5180 C.3     
  25 C25            5.7152    -7.9568     4.7776 C.2     
  26 N26            5.3864    -9.1593     5.2897 N.am    
  27 O27            6.5644    -7.2766     5.3201 O.2     
  28 C28            6.0523    -9.6469     6.5001 C.3     
  29 C29            5.5076   -11.0049     6.8607 C.ar    
  30 C30            6.1030   -12.1446     6.3526 C.ar    
  31 C31            5.6056   -13.3906     6.6816 C.ar    
  32 C32            4.5076   -13.4979     7.5228 C.ar    
  33 C33            3.9119   -12.3528     8.0314 C.ar    
  34 C34            4.4166   -11.1093     7.7038 C.ar    
  35 O35            4.0160   -14.7225     7.8477 O.3     
  36 C36            2.8836   -14.7569     8.7185 C.3     
  37 C37           12.6766    -5.1923    -2.7166 C.3     
  38 C38           11.8818    -5.9678    -3.7691 C.3     
  39 C39           14.1124    -4.9932    -3.2061 C.3     
  40 C40           12.6895    -5.9796    -1.4048 C.3     
  41 H41           10.6297    -1.8915    -1.9196 H       
  42 H42            8.7369    -0.6050    -1.1419 H       
  43 H43            6.3299    -0.6256    -0.5324 H       
  44 H44            6.3099    -4.8428    -1.2004 H       
  45 H45            4.0926    -2.6915    -1.3650 H       
  46 H46            2.4636    -6.6357    -0.3159 H       
  47 H47            6.1385    -5.6126     3.5063 H       
  48 H48            3.8079    -9.2126     3.3483 H       
  49 H49            2.6849    -8.4231     1.3306 H       
  50 H50            3.3115    -1.7247     0.7806 H       
  51 H51            4.9717    -1.7989     1.4184 H       
  52 H52            4.5894    -0.7204     0.0550 H       
  53 H53            4.7089    -9.7020     4.8568 H       
  54 H54            7.1247    -9.7217     6.3198 H       
  55 H55            5.8694    -8.9525     7.3202 H       
  56 H56            6.9576   -12.0606     5.6975 H       
  57 H57            6.0708   -14.2805     6.2842 H       
  58 H58            3.0570   -12.4337     8.6863 H       
  59 H59            3.9562   -10.2177     8.1032 H       
  60 H60            3.1396   -14.2832     9.6663 H       
  61 H61            2.0540   -14.2213     8.2570 H       
  62 H62            2.5935   -15.7924     8.8966 H       
  63 H63           11.8726    -5.4069    -4.7037 H       
  64 H64           12.3478    -6.9395    -3.9331 H       
  65 H65           10.8589    -6.1097    -3.4204 H       
  66 H66           14.6786    -4.4406    -2.4562 H       
  67 H67           14.5784    -5.9648    -3.3701 H       
  68 H68           14.1032    -4.4322    -4.1406 H       
  69 H69           11.6666    -6.1215    -1.0561 H       
  70 H70           13.1555    -6.9513    -1.5688 H       
  71 H71           13.2557    -5.4271    -0.6550 H       
@<TRIPOS>BOND
   1    1    2 am
   2    1    3 2
   3    1    4 1
   4    2    5 1
   5    2   41 1
   6    4   37 1
   7    5    6 ar
   8    5   10 ar
   9    6    7 ar
  10    6   42 1
  11    7    8 ar
  12    7   43 1
  13    8    9 ar
  14    8   11 1
  15    9   10 ar
  16    9   44 1
  17   11   14 1
  18   11   24 1
  19   11   45 1
  20   12   13 am
  21   12   21 1
  22   12   46 1
  23   13   14 am
  24   13   23 2
  25   14   15 am
  26   15   16 1
  27   15   22 2
  28   16   17 ar
  29   16   21 ar
  30   17   18 ar
  31   17   47 1
  32   18   19 ar
  33   18   25 1
  34   19   20 ar
  35   19   48 1
  36   20   21 ar
  37   20   49 1
  38   24   50 1
  39   24   51 1
  40   24   52 1
  41   25   26 am
  42   25   27 2
  43   26   28 1
  44   26   53 1
  45   28   29 1
  46   28   54 1
  47   28   55 1
  48   29   30 ar
  49   29   34 ar
  50   30   31 ar
  51   30   56 1
  52   31   32 ar
  53   31   57 1
  54   32   33 ar
  55   32   35 1
  56   33   34 ar
  57   33   58 1
  58   34   59 1
  59   35   36 1
  60   36   60 1
  61   36   61 1
  62   36   62 1
  63   37   38 1
  64   37   40 1
  65   37   39 1
  66   38   63 1
  67   38   64 1
  68   38   65 1
  69   39   66 1
  70   39   67 1
  71   39   68 1
  72   40   69 1
  73   40   70 1
  74   40   71 1

#	End of record

