#	Name: ASD01001034
#	Creating user name:	WinNT
#	Creation time:	15. 06. 2019 18:54

#	Modifying user name:	WinNT
#	Modification time:	15. 06. 2019 18:54

#	Program:	/corina/corina34_cracker 3.40 0067  02.08.2006

@<TRIPOS>MOLECULE
ASD01001034
  46   48    0    0    0
SMALL
NO_CHARGES


@<TRIPOS>ATOM
   1 C1             1.2029    -0.6686    -0.1148 C.ar    
   2 C2             0.3911    -0.4219     0.9765 C.ar    
   3 C3             2.2344     0.1999    -0.4193 C.ar    
   4 C4             0.6109     0.6932     1.7634 C.ar    
   5 C5             2.4542     1.3149     0.3676 C.ar    
   6 C6             1.6427     1.5614     1.4592 C.ar    
   7 C7             3.5794     2.2611     0.0362 C.3     
   8 C8             3.4020     2.7806    -1.3672 C.ar    
   9 C9             3.5664     3.4157     1.0046 C.ar    
  10 C10            4.9149     1.5221     0.1415 C.3     
  11 C11            2.2411     2.5042    -2.0650 C.ar    
  12 C12            4.3978     3.5383    -1.9548 C.ar    
  13 C13            4.7002     3.7173     1.7357 C.ar    
  14 C14            2.4226     4.1767     1.1577 C.ar    
  15 C15            5.0237     0.8587     1.5159 C.3     
  16 C16            2.0760     2.9855    -3.3503 C.ar    
  17 C17            4.2351     4.0148    -3.2422 C.ar    
  18 C18            4.6901     4.7799     2.6199 C.ar    
  19 C19            2.4107     5.2358     2.0460 C.ar    
  20 C20            6.4158     0.2447     1.6770 C.3     
  21 C21            3.0716     3.7436    -3.9377 C.ar    
  22 C22            3.5464     5.5412     2.7726 C.ar    
  23 N23            6.5203    -0.3923     2.9966 N.3     
  24 H24            6.5757    -0.5022     0.8994 H       
  25 H25            1.0340    -1.5422    -0.7269 H       
  26 H26           -0.4150    -1.1001     1.2142 H       
  27 H27            2.8689     0.0069    -1.2717 H       
  28 H28           -0.0238     0.8864     2.6156 H       
  29 H29            1.8140     2.4330     2.0736 H       
  30 H30            4.9704     0.7596    -0.6354 H       
  31 H31            5.7333     2.2308     0.0143 H       
  32 H32            1.4632     1.9120    -1.6061 H       
  33 H33            5.3027     3.7583    -1.4079 H       
  34 H34            5.5937     3.1226     1.6164 H       
  35 H35            1.5383     3.9440     0.5829 H       
  36 H36            4.8639     1.6056     2.2935 H       
  37 H37            4.2694     0.0767     1.6026 H       
  38 H38            1.1693     2.7690    -3.8957 H       
  39 H39            5.0129     4.6070    -3.7011 H       
  40 H40            5.5756     5.0151     3.1916 H       
  41 H41            1.5171     5.8305     2.1653 H       
  42 H42            7.1701     1.0267     1.5903 H       
  43 H43            2.9428     4.1193    -4.9420 H       
  44 H44            3.5371     6.3686     3.4666 H       
  45 H45            5.7906    -1.0769     3.1265 H       
  46 H46            7.4314    -0.8056     3.1275 H       
@<TRIPOS>BOND
   1    1    2 ar
   2    1    3 ar
   3    1   25 1
   4    2    4 ar
   5    2   26 1
   6    3    5 ar
   7    3   27 1
   8    4    6 ar
   9    4   28 1
  10    5    6 ar
  11    5    7 1
  12    6   29 1
  13    7   10 1
  14    7    8 1
  15    7    9 1
  16    8   12 ar
  17    8   11 ar
  18    9   14 ar
  19    9   13 ar
  20   10   15 1
  21   10   30 1
  22   10   31 1
  23   11   16 ar
  24   11   32 1
  25   12   17 ar
  26   12   33 1
  27   13   18 ar
  28   13   34 1
  29   14   19 ar
  30   14   35 1
  31   15   20 1
  32   15   36 1
  33   15   37 1
  34   16   21 ar
  35   16   38 1
  36   17   21 ar
  37   17   39 1
  38   18   22 ar
  39   18   40 1
  40   19   22 ar
  41   19   41 1
  42   20   23 1
  43   20   24 1
  44   20   42 1
  45   21   43 1
  46   22   44 1
  47   23   45 1
  48   23   46 1

#	End of record

