#	Name: ASD03330801
#	Creating user name:	WinNT
#	Creation time:	15. 06. 2019 20:38

#	Modifying user name:	WinNT
#	Modification time:	15. 06. 2019 20:38

#	Program:	/corina/corina34_cracker 3.40 0067  02.08.2006

@<TRIPOS>MOLECULE
ASD03330801
  60   62    0    0    0
SMALL
NO_CHARGES


@<TRIPOS>ATOM
   1 C1             0.7795     1.4277     0.2190 C.2     
   2 N2             0.6848     0.0720     0.2670 N.pl3   
   3 C3             2.0966     1.7315     0.0550 C.2     
   4 N4             2.7827     0.5692    -0.0121 N.2     
   5 C5             1.9426    -0.4322     0.1085 C.2     
   6 C6             2.2999    -1.8667     0.0784 C.ar    
   7 C7             2.6712     3.0855    -0.0335 C.2     
   8 O8             1.9467     4.0596     0.0409 O.2     
   9 C9             4.5707     4.5907    -0.2848 C.3     
  10 N10            3.9995     3.2445    -0.1969 N.am    
  11 C11            5.8897     4.5355    -1.0582 C.3     
  12 C12            4.8240     5.1206     1.1030 C.2     
  13 O13            4.5539     4.4408     2.0703 O.2     
  14 C14           -0.5526    -0.6868     0.4684 C.3     
  15 C15           -1.6389    -0.1312    -0.4579 C.3     
  16 C16           -2.3660     1.0188     0.2316 C.3     
  17 N17           -1.4559     1.7772     1.0922 N.3     
  18 C18           -0.3727     2.3942     0.3123 C.3     
  19 C19            1.8048    -2.7324     1.0547 C.ar    
  20 C20            2.1407    -4.0702     1.0218 C.ar    
  21 C21           -2.1861     2.7872     1.8698 C.3     
  22 N22            5.3506     6.3501     1.2692 N.am    
  23 C23            2.9696    -4.5561     0.0209 C.ar    
  24 C24            5.6116     4.1581    -2.5146 C.3     
  25 C25            3.1297    -2.3617    -0.9310 C.ar    
  26 C26            3.4646    -3.7024    -0.9505 C.ar    
  27 C27            4.5838     5.1258    -3.1049 C.3     
  28 C28            6.9101     4.2398    -3.3196 C.3     
  29 C29            5.0625     2.7313    -2.5758 C.3     
  30 F30            3.2954    -5.8670    -0.0057 F       
  31 F31            3.6081    -1.5305    -1.8826 F       
  32 Cl32           1.5253    -5.1478     2.2358 Cl      
  33 H33            3.8729     5.2484    -0.8031 H       
  34 H34            4.5773     2.4677    -0.2562 H       
  35 H35            6.3734     5.5117    -1.0219 H       
  36 H36            6.5439     3.7889    -0.6080 H       
  37 H37           -0.3778    -1.7372     0.2357 H       
  38 H38           -0.8741    -0.5909     1.5054 H       
  39 H39           -1.1804     0.2299    -1.3785 H       
  40 H40           -2.3520    -0.9208    -0.6947 H       
  41 H41           -2.7807     1.6847    -0.5252 H       
  42 H42           -3.1785     0.6166     0.8367 H       
  43 H43           -0.0428     3.3080     0.8064 H       
  44 H44           -0.7330     2.6296    -0.6891 H       
  45 H45            1.1600    -2.3557     1.8349 H       
  46 H46           -2.9306     2.2955     2.4958 H       
  47 H47           -1.4864     3.3360     2.5003 H       
  48 H48           -2.6829     3.4797     1.1902 H       
  49 H49            5.5666     6.8938     0.4955 H       
  50 H50            5.5136     6.6912     2.1625 H       
  51 H51            4.1062    -4.0866    -1.7297 H       
  52 H52            4.9750     6.1422    -3.0613 H       
  53 H53            4.3857     4.8569    -4.1424 H       
  54 H54            3.6587     5.0675    -2.5314 H       
  55 H55            7.6423     3.5505    -2.8991 H       
  56 H56            6.7119     3.9710    -4.3572 H       
  57 H57            7.3012     5.2563    -3.2760 H       
  58 H58            4.0629     2.7078    -2.1420 H       
  59 H59            5.0156     2.4043    -3.6145 H       
  60 H60            5.7180     2.0654    -2.0145 H       
@<TRIPOS>BOND
   1    1    2 1
   2    1    3 2
   3    1   18 1
   4    2   14 1
   5    2    5 1
   6    3    4 1
   7    3    7 1
   8    4    5 2
   9    5    6 1
  10    6   25 ar
  11    6   19 ar
  12    7    8 2
  13    7   10 am
  14    9   10 1
  15    9   11 1
  16    9   12 1
  17    9   33 1
  18   10   34 1
  19   11   24 1
  20   11   35 1
  21   11   36 1
  22   12   13 2
  23   12   22 am
  24   14   15 1
  25   14   37 1
  26   14   38 1
  27   15   16 1
  28   15   39 1
  29   15   40 1
  30   16   17 1
  31   16   41 1
  32   16   42 1
  33   17   18 1
  34   17   21 1
  35   18   43 1
  36   18   44 1
  37   19   20 ar
  38   19   45 1
  39   20   32 1
  40   20   23 ar
  41   21   46 1
  42   21   47 1
  43   21   48 1
  44   22   49 1
  45   22   50 1
  46   23   30 1
  47   23   26 ar
  48   24   27 1
  49   24   28 1
  50   24   29 1
  51   25   26 ar
  52   25   31 1
  53   26   51 1
  54   27   52 1
  55   27   53 1
  56   27   54 1
  57   28   55 1
  58   28   56 1
  59   28   57 1
  60   29   58 1
  61   29   59 1
  62   29   60 1

#	End of record

