#	Name: ASD01901055
#	Creating user name:	WinNT
#	Creation time:	15. 06. 2019 19:53

#	Modifying user name:	WinNT
#	Modification time:	15. 06. 2019 19:53

#	Program:	/corina/corina34_cracker 3.40 0067  02.08.2006

@<TRIPOS>MOLECULE
ASD01901055
  44   46    0    0    0
SMALL
NO_CHARGES


@<TRIPOS>ATOM
   1 C1             0.6931     2.7824     1.2156 C.ar    
   2 C2             1.7295     3.1847     2.0532 C.ar    
   3 C3             2.8970     2.4363     2.0921 C.ar    
   4 C4             2.9885     1.3110     1.2921 C.ar    
   5 C5             1.9139     0.9648     0.4771 C.ar    
   6 N6             0.8159     1.6960     0.4612 N.ar    
   7 C7            -0.5607     3.5695     1.1698 C.2     
   8 O8            -0.6810     4.5616     1.8614 O.2     
   9 N9            -1.5682     3.1857     0.3610 N.am    
  10 O10            1.9972    -0.1370    -0.3101 O.3     
  11 C11            0.8623    -0.4402    -1.1238 C.3     
  12 C12           -2.7862     3.8718     0.3876 C.ar    
  13 C13           -2.8066     5.2463     0.5870 C.ar    
  14 C14           -4.0114     5.9210     0.6127 C.ar    
  15 C15           -5.1965     5.2297     0.4402 C.ar    
  16 C16           -5.1798     3.8612     0.2419 C.ar    
  17 C17           -3.9781     3.1814     0.2089 C.ar    
  18 S18           -6.7314     6.0944     0.4737 S.o2    
  19 O19           -7.7227     5.1389     0.8255 O.2     
  20 O20           -6.5043     7.2866     1.2127 O.2     
  21 N21           -7.0640     6.5630    -1.0794 N.am    
  22 C22           -7.2103     5.6018    -2.0832 C.ar    
  23 C23           -6.7611     5.8663    -3.3720 C.ar    
  24 C24           -6.9076     4.9134    -4.3618 C.ar    
  25 C25           -7.5003     3.6979    -4.0710 C.ar    
  26 C26           -7.9483     3.4324    -2.7904 C.ar    
  27 C27           -7.7995     4.3782    -1.7944 C.ar    
  28 Cl28          -6.0177     7.3919    -3.7375 Cl      
  29 H29            1.6261     4.0687     2.6649 H       
  30 H30            3.7168     2.7260     2.7327 H       
  31 H31            3.8842     0.7076     1.2996 H       
  32 H32           -1.4483     2.4333    -0.2395 H       
  33 H33            1.0603    -1.3429    -1.7017 H       
  34 H34           -0.0086    -0.5997    -0.4879 H       
  35 H35            0.6694     0.3907    -1.8024 H       
  36 H36           -1.8814     5.7867     0.7222 H       
  37 H37           -4.0279     6.9896     0.7681 H       
  38 H38           -6.1072     3.3242     0.1078 H       
  39 H39           -3.9654     2.1134     0.0488 H       
  40 H40           -7.1573     7.5048    -1.2924 H       
  41 H41           -6.5593     5.1179    -5.3634 H       
  42 H42           -7.6136     2.9547    -4.8464 H       
  43 H43           -8.4109     2.4824    -2.5672 H       
  44 H44           -8.1455     4.1679    -0.7932 H       
@<TRIPOS>BOND
   1    1    2 ar
   2    1    6 ar
   3    1    7 1
   4    2    3 ar
   5    2   29 1
   6    3    4 ar
   7    3   30 1
   8    4    5 ar
   9    4   31 1
  10    5    6 ar
  11    5   10 1
  12    7    8 2
  13    7    9 am
  14    9   12 1
  15    9   32 1
  16   10   11 1
  17   11   33 1
  18   11   34 1
  19   11   35 1
  20   12   13 ar
  21   12   17 ar
  22   13   14 ar
  23   13   36 1
  24   14   15 ar
  25   14   37 1
  26   15   16 ar
  27   15   18 1
  28   16   17 ar
  29   16   38 1
  30   17   39 1
  31   18   19 2
  32   18   20 2
  33   18   21 am
  34   21   22 1
  35   21   40 1
  36   22   23 ar
  37   22   27 ar
  38   23   24 ar
  39   23   28 1
  40   24   25 ar
  41   24   41 1
  42   25   26 ar
  43   25   42 1
  44   26   27 ar
  45   26   43 1
  46   27   44 1

#	End of record

