#	Name: ASD02198291
#	Creating user name:	WinNT
#	Creation time:	15. 06. 2019 20:19

#	Modifying user name:	WinNT
#	Modification time:	15. 06. 2019 20:19

#	Program:	/corina/corina34_cracker 3.40 0067  02.08.2006

@<TRIPOS>MOLECULE
ASD02198291
  44   47    0    0    0
SMALL
NO_CHARGES


@<TRIPOS>ATOM
   1 C1            -0.0166     1.3760     0.0096 C.2     
   2 C2             0.0021    -0.0041     0.0020 C.2     
   3 S3             1.6541     1.9348    -0.0033 S.3     
   4 C4             2.2115     0.3197    -0.0173 C.2     
   5 N5             1.2124    -0.5143    -0.0123 N.2     
   6 N6            -1.1485    -0.7790     0.0088 N.pl3   
   7 C7            -1.1678     2.1931     0.0198 C.2     
   8 O8            -2.2775     1.6843     0.0225 O.2     
   9 C9            -1.0304     3.6551     0.0270 C.2     
  10 N10            3.5381    -0.0495    -0.0316 N.pl3   
  11 C11            3.9036    -1.4682    -0.0427 C.3     
  12 S12            0.4953     4.5291     0.0236 S.3     
  13 C13           -0.3476     6.0722     0.0354 C.2     
  14 C14           -1.6948     5.8601     0.0412 C.2     
  15 C15           -2.0682     4.5426     0.0315 C.2     
  16 C16            0.3049     7.3979     0.0391 C.ar    
  17 C17            1.6977     7.4939     0.0324 C.ar    
  18 C18           -0.4687     8.5601     0.0434 C.ar    
  19 C19            0.1469     9.7946     0.0463 C.ar    
  20 C20            1.5277     9.8826     0.0450 C.ar    
  21 C21            2.3003     8.7348     0.0354 C.ar    
  22 C22            5.2982    -1.6483    -0.6675 C.3     
  23 C23            6.1891    -2.2849     0.4192 C.3     
  24 C24            5.1871    -2.9905     1.3664 C.3     
  25 C25            3.9957    -2.0015     1.4019 C.3     
  26 H26           -2.0199    -0.3532     0.0194 H       
  27 H27           -1.0815    -1.7466     0.0030 H       
  28 H28            4.2306     0.6297    -0.0342 H       
  29 H29            3.1655    -2.0392    -0.6060 H       
  30 H30           -2.4113     6.6682     0.0492 H       
  31 H31           -3.1020     4.2300     0.0347 H       
  32 H32            2.3019     6.5988     0.0253 H       
  33 H33           -1.5466     8.4928     0.0440 H       
  34 H34           -0.4504    10.6944     0.0492 H       
  35 H35            2.0046    10.8516     0.0473 H       
  36 H36            3.3777     8.8105     0.0349 H       
  37 H37            5.2370    -2.3074    -1.5335 H       
  38 H38            5.7031    -0.6802    -0.9625 H       
  39 H39            6.8713    -3.0105    -0.0236 H       
  40 H40            6.7445    -1.5157     0.9559 H       
  41 H41            4.8789    -3.9520     0.9558 H       
  42 H42            5.6167    -3.1137     2.3606 H       
  43 H43            4.1969    -1.1866     2.0973 H       
  44 H44            3.0772    -2.5204     1.6762 H       
@<TRIPOS>BOND
   1    1    2 2
   2    1    3 1
   3    1    7 1
   4    2    6 1
   5    2    5 1
   6    3    4 1
   7    4    5 2
   8    4   10 1
   9    6   26 1
  10    6   27 1
  11    7    8 2
  12    7    9 1
  13    9   12 1
  14    9   15 2
  15   10   11 1
  16   10   28 1
  17   11   22 1
  18   11   25 1
  19   11   29 1
  20   12   13 1
  21   13   14 2
  22   13   16 1
  23   14   15 1
  24   14   30 1
  25   15   31 1
  26   16   17 ar
  27   16   18 ar
  28   17   21 ar
  29   17   32 1
  30   18   19 ar
  31   18   33 1
  32   19   20 ar
  33   19   34 1
  34   20   21 ar
  35   20   35 1
  36   21   36 1
  37   22   23 1
  38   22   37 1
  39   22   38 1
  40   23   24 1
  41   23   39 1
  42   23   40 1
  43   24   25 1
  44   24   41 1
  45   24   42 1
  46   25   43 1
  47   25   44 1

#	End of record

