#	Name: ASD08070108
#	Creating user name:	WinNT
#	Creation time:	15. 06. 2019 21:14

#	Modifying user name:	WinNT
#	Modification time:	15. 06. 2019 21:14

#	Program:	/corina/corina34_cracker 3.40 0067  02.08.2006

@<TRIPOS>MOLECULE
ASD08070108
  40   42    0    0    0
SMALL
NO_CHARGES


@<TRIPOS>ATOM
   1 C1            -0.0166     1.3718     0.0096 C.ar    
   2 C2             0.0021    -0.0041     0.0020 C.ar    
   3 C3             1.1837     2.0868     0.0020 C.ar    
   4 C4             2.4030     1.4051    -0.0133 C.ar    
   5 C5             2.4221     0.0292    -0.0209 C.ar    
   6 C6             1.2217    -0.6862    -0.0133 C.ar    
   7 C7             1.2419    -2.1629    -0.0209 C.2     
   8 N8             0.0841    -2.8527    -0.0135 N.am    
   9 C9            -1.1899    -4.8422     0.5977 C.3     
  10 O10            2.3029    -2.7562    -0.0338 O.2     
  11 C11            1.1634     3.5634     0.0096 C.2     
  12 C12           -1.2465    -6.3597     0.3857 C.3     
  13 C13            0.1042    -4.3176    -0.0211 C.3     
  14 C14            0.2486    -4.8051    -1.4390 C.ar    
  15 C15           -0.4696    -5.8705    -1.9331 C.ar    
  16 C16           -1.4689    -6.6305    -1.1009 C.3     
  17 C17            2.3032     4.2425     0.0023 C.2     
  18 C18            1.1478    -4.1402    -2.2630 C.ar    
  19 C19            1.3285    -4.5404    -3.5705 C.ar    
  20 C20            0.6100    -5.6129    -4.0657 C.ar    
  21 C21           -0.2834    -6.2744    -3.2491 C.ar    
  22 H22           -0.9591     1.8990     0.0169 H       
  23 H23           -0.9258    -0.5568     0.0082 H       
  24 H24            3.3308     1.9580    -0.0196 H       
  25 H25            3.3647    -0.4978    -0.0330 H       
  26 H26           -0.7625    -2.3793    -0.0033 H       
  27 H27           -2.0456    -4.3717     0.1135 H       
  28 H28           -1.2031    -4.6199     1.6647 H       
  29 H29            0.2208     4.0904     0.0210 H       
  30 H30           -0.3064    -6.8102     0.7042 H       
  31 H31           -2.0699    -6.7806     0.9628 H       
  32 H32            0.9520    -4.6679     0.5676 H       
  33 H33           -1.3576    -7.6979    -1.2915 H       
  34 H34           -2.4767    -6.3200    -1.3768 H       
  35 H35            2.2884     5.3224     0.0079 H       
  36 H36            3.2458     3.7154    -0.0091 H       
  37 H37            1.7098    -3.3027    -1.8768 H       
  38 H38            2.0286    -4.0178    -4.2054 H       
  39 H39            0.7483    -5.9321    -5.0881 H       
  40 H40           -0.8441    -7.1121    -3.6366 H       
@<TRIPOS>BOND
   1    1    2 ar
   2    1    3 ar
   3    1   22 1
   4    2    6 ar
   5    2   23 1
   6    3    4 ar
   7    3   11 1
   8    4    5 ar
   9    4   24 1
  10    5    6 ar
  11    5   25 1
  12    6    7 1
  13    7    8 am
  14    7   10 2
  15    8   13 1
  16    8   26 1
  17    9   12 1
  18    9   13 1
  19    9   27 1
  20    9   28 1
  21   11   17 2
  22   11   29 1
  23   12   16 1
  24   12   30 1
  25   12   31 1
  26   13   14 1
  27   13   32 1
  28   14   15 ar
  29   14   18 ar
  30   15   16 1
  31   15   21 ar
  32   16   33 1
  33   16   34 1
  34   17   35 1
  35   17   36 1
  36   18   19 ar
  37   18   37 1
  38   19   20 ar
  39   19   38 1
  40   20   21 ar
  41   20   39 1
  42   21   40 1

#	End of record

