#	Name: ASD09116211
#	Creating user name:	WinNT
#	Creation time:	15. 06. 2019 21:21

#	Modifying user name:	WinNT
#	Modification time:	15. 06. 2019 21:21

#	Program:	/corina/corina34_cracker 3.40 0067  02.08.2006

@<TRIPOS>MOLECULE
ASD09116211
  75   81    0    0    0
SMALL
NO_CHARGES


@<TRIPOS>ATOM
   1 N1            -0.5952     3.8516     0.1028 N.2     
   2 N2            -1.1723     5.0572     0.5335 N.pl3   
   3 C3             0.7035     4.0339     0.0847 C.2     
   4 N4             0.9740     5.2838     0.4790 N.2     
   5 C5            -0.1478     5.9143     0.7535 C.2     
   6 N6             1.6502     3.0788    -0.2854 N.pl3   
   7 C7             3.0037     3.4293    -0.3670 C.ar    
   8 C8             3.9835     2.4779    -0.1031 C.ar    
   9 C9             5.6961     4.1048    -0.5234 C.ar    
  10 C10            4.7129     5.0683    -0.7970 C.ar    
  11 C11            3.3626     4.7202    -0.7155 C.ar    
  12 C12           -2.5331     5.3198     0.7014 C.ar    
  13 N13           -2.9266     6.2621     1.5452 N.ar    
  14 N14           -4.1667     6.5367     1.7436 N.ar    
  15 C15           -5.1308     5.8871     1.1114 C.ar    
  16 C16           -4.8096     4.8902     0.1857 C.ar    
  17 C17           -3.4798     4.5927    -0.0247 C.ar    
  18 C18           -6.5614     6.1640     1.3782 C.ar    
  19 C19           -7.4187     5.0936     1.6378 C.ar    
  20 C20           -6.8602     3.6982     1.6952 C.3     
  21 C21           -6.5899     3.1486     0.2972 C.3     
  22 C22           -5.9041     4.1982    -0.5733 C.3     
  23 C23           -7.0547     7.4640     1.3686 C.ar    
  24 C24           -8.3986     7.6870     1.5982 C.ar    
  25 C25           -9.2487     6.6219     1.8345 C.ar    
  26 C26           -8.7600     5.3270     1.8534 C.ar    
  27 N27           -0.2604     7.2210     1.1890 N.pl3   
  28 C28            5.3201     2.8133    -0.1808 C.ar    
  29 N29            7.0453     4.4418    -0.6022 N.3     
  30 C30            7.7139     4.2426     0.6900 C.3     
  31 C31            9.1525     4.7579     0.6063 C.3     
  32 C32            9.8972     4.0009    -0.4968 C.3     
  33 C33            9.1537     4.1849    -1.8227 C.3     
  34 C34            7.7150     3.6863    -1.6686 C.3     
  35 N35           11.2614     4.5314    -0.6213 N.3     
  36 C36           12.0261     4.3197     0.6214 C.3     
  37 C37           13.2921     3.5200     0.2486 C.3     
  38 C38           13.4582     3.8144    -1.2655 C.3     
  39 C39           11.9835     3.8803    -1.7351 C.3     
  40 C40            5.0921     6.4013    -1.1572 C.1     
  41 N41            5.3929     7.4588    -1.4430 N.1     
  42 H42            1.3711     2.1718    -0.4863 H       
  43 H43            3.6970     1.4715     0.1643 H       
  44 H44            2.6003     5.4562    -0.9244 H       
  45 H45           -3.1814     3.8213    -0.7192 H       
  46 H46           -5.9280     3.7102     2.2600 H       
  47 H47           -7.5743     3.0489     2.2017 H       
  48 H48           -5.9478     2.2713     0.3745 H       
  49 H49           -7.5347     2.8613    -0.1642 H       
  50 H50           -6.6405     4.9357    -0.8927 H       
  51 H51           -5.4795     3.7130    -1.4521 H       
  52 H52           -6.3906     8.2952     1.1829 H       
  53 H53           -8.7861     8.6951     1.5937 H       
  54 H54          -10.2998     6.8016     2.0053 H       
  55 H55           -9.4294     4.4997     2.0373 H       
  56 H56            0.5360     7.7595     1.3181 H       
  57 H57           -1.1358     7.5997     1.3656 H       
  58 H58            6.0752     2.0693     0.0258 H       
  59 H59            7.1767     4.7895     1.4649 H       
  60 H60            7.7222     3.1805     0.9347 H       
  61 H61            9.1447     5.8231     0.3752 H       
  62 H62            9.6532     4.5956     1.5608 H       
  63 H63            9.9390     2.9408    -0.2467 H       
  64 H64            9.1459     5.2411    -2.0920 H       
  65 H65            9.6552     3.6133    -2.6036 H       
  66 H66            7.7233     2.6268    -1.4128 H       
  67 H67            7.1787     3.8291    -2.6067 H       
  68 H68           12.3079     5.2807     1.0517 H       
  69 H69           11.4263     3.7535     1.3340 H       
  70 H70           14.1549     3.8811     0.8084 H       
  71 H71           13.1390     2.4544     0.4195 H       
  72 H72           13.9618     4.7679    -1.4249 H       
  73 H73           13.9910     3.0049    -1.7645 H       
  74 H74           11.5940     2.8765    -1.9046 H       
  75 H75           11.9005     4.4787    -2.6424 H       
@<TRIPOS>BOND
   1    1    2 1
   2    1    3 2
   3    2   12 1
   4    2    5 1
   5    3    4 1
   6    3    6 1
   7    4    5 2
   8    5   27 1
   9    6    7 1
  10    6   42 1
  11    7    8 ar
  12    7   11 ar
  13    8   28 ar
  14    8   43 1
  15    9   10 ar
  16    9   29 1
  17    9   28 ar
  18   10   11 ar
  19   10   40 1
  20   11   44 1
  21   12   13 ar
  22   12   17 ar
  23   13   14 ar
  24   14   15 ar
  25   15   16 ar
  26   15   18 1
  27   16   17 ar
  28   16   22 1
  29   17   45 1
  30   18   19 ar
  31   18   23 ar
  32   19   20 1
  33   19   26 ar
  34   20   21 1
  35   20   46 1
  36   20   47 1
  37   21   22 1
  38   21   48 1
  39   21   49 1
  40   22   50 1
  41   22   51 1
  42   23   24 ar
  43   23   52 1
  44   24   25 ar
  45   24   53 1
  46   25   26 ar
  47   25   54 1
  48   26   55 1
  49   27   56 1
  50   27   57 1
  51   28   58 1
  52   29   30 1
  53   29   34 1
  54   30   31 1
  55   30   59 1
  56   30   60 1
  57   31   32 1
  58   31   61 1
  59   31   62 1
  60   32   33 1
  61   32   35 1
  62   32   63 1
  63   33   34 1
  64   33   64 1
  65   33   65 1
  66   34   66 1
  67   34   67 1
  68   35   36 1
  69   35   39 1
  70   36   37 1
  71   36   68 1
  72   36   69 1
  73   37   38 1
  74   37   70 1
  75   37   71 1
  76   38   39 1
  77   38   72 1
  78   38   73 1
  79   39   74 1
  80   39   75 1
  81   40   41 3

#	End of record

