#	Name: ASD01150235
#	Creating user name:	WinNT
#	Creation time:	15. 06. 2019 19:03

#	Modifying user name:	WinNT
#	Modification time:	15. 06. 2019 19:03

#	Program:	/corina/corina34_cracker 3.40 0067  02.08.2006

@<TRIPOS>MOLECULE
ASD01150235
  62   66    0    0    0
SMALL
NO_CHARGES


@<TRIPOS>ATOM
   1 C1             0.2773     0.8863     0.1608 C.ar    
   2 C2             0.1643    -0.5010     0.3044 C.ar    
   3 C3            -1.0543    -1.1002     0.3726 C.ar    
   4 C4            -2.2246    -0.3240     0.2988 C.ar    
   5 C5            -2.1153     1.0805     0.1535 C.ar    
   6 C6            -0.8507     1.6772     0.0911 C.ar    
   7 N7            -3.4318    -0.8962     0.3637 N.ar    
   8 C8            -4.5356    -0.1912     0.2965 C.ar    
   9 C9            -4.5167     1.1912     0.1536 C.ar    
  10 C10           -3.3004     1.8568     0.0799 C.ar    
  11 N11            1.5416     1.4752     0.0934 N.3     
  12 C12           -3.2421     3.3284    -0.0726 C.ar    
  13 C13           -5.8089     1.9632     0.0799 C.3     
  14 C14           -6.4364     1.7766    -1.3029 C.3     
  15 O15           -6.7088     1.4821     1.0803 O.3     
  16 C16           -5.8628    -0.9005     0.3761 C.3     
  17 C17           -2.7006     4.1164     0.9434 C.ar    
  18 C18           -2.6482     5.4867     0.7964 C.ar    
  19 C19           -3.1327     6.0812    -0.3581 C.ar    
  20 C20           -3.6716     5.3027    -1.3702 C.ar    
  21 C21           -3.7232     3.9312    -1.2352 C.ar    
  22 F22           -3.0799     7.4240    -0.4970 F       
  23 C23            2.6000     0.4620     0.1922 C.3     
  24 C24            3.9625     1.1223    -0.0307 C.3     
  25 C25            4.1742     2.2128     1.0230 C.3     
  26 C26            3.0325     3.2291     0.9309 C.3     
  27 C27            1.6970     2.5077     1.1259 C.3     
  28 C28           -7.6668     2.3432     1.5140 C.ar    
  29 C29           -8.4992     1.9845     2.5642 C.ar    
  30 C30           -9.4719     2.8612     3.0040 C.ar    
  31 C31           -9.6163     4.0966     2.3977 C.ar    
  32 C32           -8.7871     4.4562     1.3501 C.ar    
  33 C33           -7.8097     3.5843     0.9109 C.ar    
  34 Cl34         -10.8398     5.1964     2.9518 Cl      
  35 H35            1.0580    -1.1047     0.3615 H       
  36 H36           -1.1235    -2.1723     0.4832 H       
  37 H37           -0.7589     2.7476    -0.0197 H       
  38 H38           -5.6099     3.0215     0.2489 H       
  39 H39           -5.7936     2.2296    -2.0577 H       
  40 H40           -6.5470     0.7124    -1.5111 H       
  41 H41           -7.4156     2.2549    -1.3251 H       
  42 H42           -6.1428    -1.0312     1.4214 H       
  43 H43           -6.6229    -0.3072    -0.1322 H       
  44 H44           -5.7827    -1.8761    -0.1033 H       
  45 H45           -2.3235     3.6542     1.8436 H       
  46 H46           -2.2292     6.0976     1.5823 H       
  47 H47           -4.0482     5.7707    -2.2678 H       
  48 H48           -4.1430     3.3254    -2.0246 H       
  49 H49            2.5749     0.0059     1.1818 H       
  50 H50            2.4400    -0.3053    -0.5653 H       
  51 H51            4.7489     0.3728     0.0582 H       
  52 H52            3.9932     1.5666    -1.0255 H       
  53 H53            4.1824     1.7633     2.0160 H       
  54 H54            5.1244     2.7151     0.8417 H       
  55 H55            3.1546     3.9849     1.7068 H       
  56 H56            3.0486     3.7066    -0.0488 H       
  57 H57            0.8812     3.2262     1.0466 H       
  58 H58            1.6762     2.0421     2.1112 H       
  59 H59           -8.3870     1.0202     3.0375 H       
  60 H60          -10.1203     2.5821     3.8213 H       
  61 H61           -8.9013     5.4209     0.8781 H       
  62 H62           -7.1626     3.8653     0.0932 H       
@<TRIPOS>BOND
   1    1    2 ar
   2    1   11 1
   3    1    6 ar
   4    2    3 ar
   5    2   35 1
   6    3    4 ar
   7    3   36 1
   8    4    5 ar
   9    4    7 ar
  10    5    6 ar
  11    5   10 ar
  12    6   37 1
  13    7    8 ar
  14    8    9 ar
  15    8   16 1
  16    9   10 ar
  17    9   13 1
  18   10   12 1
  19   11   23 1
  20   11   27 1
  21   12   17 ar
  22   12   21 ar
  23   13   14 1
  24   13   15 1
  25   13   38 1
  26   14   39 1
  27   14   40 1
  28   14   41 1
  29   15   28 1
  30   16   42 1
  31   16   43 1
  32   16   44 1
  33   17   18 ar
  34   17   45 1
  35   18   19 ar
  36   18   46 1
  37   19   20 ar
  38   19   22 1
  39   20   21 ar
  40   20   47 1
  41   21   48 1
  42   23   24 1
  43   23   49 1
  44   23   50 1
  45   24   25 1
  46   24   51 1
  47   24   52 1
  48   25   26 1
  49   25   53 1
  50   25   54 1
  51   26   27 1
  52   26   55 1
  53   26   56 1
  54   27   57 1
  55   27   58 1
  56   28   29 ar
  57   28   33 ar
  58   29   30 ar
  59   29   59 1
  60   30   31 ar
  61   30   60 1
  62   31   32 ar
  63   31   34 1
  64   32   33 ar
  65   32   61 1
  66   33   62 1

#	End of record

