#	Name: ASD00122016
#	Creating user name:	WinNT
#	Creation time:	15. 06. 2019 18:31

#	Modifying user name:	WinNT
#	Modification time:	15. 06. 2019 18:31

#	Program:	/corina/corina34_cracker 3.40 0067  02.08.2006

@<TRIPOS>MOLECULE
ASD00122016
  38   38    0    0    0
SMALL
NO_CHARGES


@<TRIPOS>ATOM
   1 C1            -0.0168     1.3888     0.0097 C.ar    
   2 C2             0.0021    -0.0041     0.0020 C.ar    
   3 C3             1.2162    -0.6868    -0.0132 C.ar    
   4 C4             2.3963     0.0108    -0.0207 C.ar    
   5 C5             2.3805     1.4090    -0.0131 C.ar    
   6 C6             1.1601     2.0917     0.0022 C.ar    
   7 C7             3.6483     2.1623    -0.0206 C.2     
   8 N8             3.6316     3.5100    -0.0132 N.am    
   9 O9             4.7089     1.5675    -0.0335 O.2     
  10 C10            4.8910     4.2583    -0.0207 C.3     
  11 C11            5.3805     4.4184    -1.4614 C.3     
  12 C12            4.6673     5.6394     0.5984 C.3     
  13 C13            4.2984     5.4827     2.0750 C.3     
  14 C14            5.7230     3.0438    -2.0395 C.3     
  15 S15           -1.5127    -0.9041     0.0122 S.3     
  16 C16           -0.9608    -2.6320    -0.0025 C.3     
  17 C17           -2.1797    -3.5568     0.0046 C.3     
  18 H18           -0.9596     1.9155     0.0170 H       
  19 H19            1.2279    -1.7667    -0.0188 H       
  20 H20            3.3374    -0.5190    -0.0322 H       
  21 H21            1.1449     3.1715     0.0078 H       
  22 H22            2.7856     3.9844    -0.0029 H       
  23 H23            5.6387     3.7170     0.5590 H       
  24 H24            4.5970     4.8802    -2.0622 H       
  25 H25            6.2688     5.0499    -1.4753 H       
  26 H26            5.5806     6.2282     0.5126 H       
  27 H27            3.8576     6.1461     0.0734 H       
  28 H28            4.1391     6.4667     2.5161 H       
  29 H29            3.3852     4.8939     2.1608 H       
  30 H30            5.1081     4.9760     2.6000 H       
  31 H31            6.0717     3.1579    -3.0658 H       
  32 H32            6.5065     2.5820    -1.4387 H       
  33 H33            4.8347     2.4123    -2.0256 H       
  34 H34           -0.3696    -2.8170    -0.8994 H       
  35 H35           -0.3520    -2.8265     0.8804 H       
  36 H36           -2.7885    -3.3623    -0.8784 H       
  37 H37           -1.8481    -4.5951    -0.0043 H       
  38 H38           -2.7709    -3.3718     0.9015 H       
@<TRIPOS>BOND
   1    1    2 ar
   2    1    6 ar
   3    1   18 1
   4    2    3 ar
   5    2   15 1
   6    3    4 ar
   7    3   19 1
   8    4    5 ar
   9    4   20 1
  10    5    6 ar
  11    5    7 1
  12    6   21 1
  13    7    8 am
  14    7    9 2
  15    8   10 1
  16    8   22 1
  17   10   11 1
  18   10   12 1
  19   10   23 1
  20   11   14 1
  21   11   24 1
  22   11   25 1
  23   12   13 1
  24   12   26 1
  25   12   27 1
  26   13   28 1
  27   13   29 1
  28   13   30 1
  29   14   31 1
  30   14   32 1
  31   14   33 1
  32   15   16 1
  33   16   17 1
  34   16   34 1
  35   16   35 1
  36   17   36 1
  37   17   37 1
  38   17   38 1

#	End of record

