#	Name: ASD03320224
#	Creating user name:	WinNT
#	Creation time:	15. 06. 2019 20:36

#	Modifying user name:	WinNT
#	Modification time:	15. 06. 2019 20:36

#	Program:	/corina/corina34_cracker 3.40 0067  02.08.2006

@<TRIPOS>MOLECULE
ASD03320224
  38   40    0    0    0
SMALL
NO_CHARGES


@<TRIPOS>ATOM
   1 C1            -0.0073     1.3430    -0.1946 C.ar    
   2 C2             0.0219    -0.0350     0.0266 C.ar    
   3 N3            -1.0905    -0.7401     0.0430 N.ar    
   4 C4            -2.2723    -0.1857    -0.1462 C.ar    
   5 C5            -2.3919     1.1867    -0.3743 C.ar    
   6 C6            -1.2408     1.9724    -0.3941 C.ar    
   7 C7             1.2456     2.1264    -0.2118 C.2     
   8 O8             1.2098     3.3261    -0.4054 O.2     
   9 N9             2.4279     1.5108    -0.0130 N.am    
  10 C10            3.6217     2.2342    -0.1262 C.ar    
  11 C11           -3.7260     1.8009    -0.5864 C.ar    
  12 C12            3.6730     3.5590     0.2867 C.ar    
  13 C13            4.8505     4.2715     0.1752 C.ar    
  14 C14            5.9821     3.6641    -0.3492 C.ar    
  15 C15            5.9315     2.3408    -0.7624 C.ar    
  16 C16            4.7562     1.6253    -0.6462 C.ar    
  17 O17            7.1413     4.3663    -0.4587 O.3     
  18 C18            8.2672     3.6784    -1.0075 C.3     
  19 Cl19           9.6848     4.7913    -1.0593 Cl      
  20 F20            8.5723     2.5715    -0.2082 F       
  21 F21            7.9644     3.2482    -2.3038 F       
  22 C22           -4.6187     1.2570    -1.5135 C.ar    
  23 C23           -5.8514     1.8667    -1.6740 C.ar    
  24 C24           -6.1568     2.9840    -0.9188 C.ar    
  25 N25           -5.2931     3.4749    -0.0508 N.ar    
  26 C26           -4.1111     2.9259     0.1400 C.ar    
  27 Cl27          -3.6980    -1.1755    -0.1116 Cl      
  28 H28            0.9688    -0.5293     0.1861 H       
  29 H29           -1.2987     3.0368    -0.5678 H       
  30 H30            2.4521     0.5668     0.2085 H       
  31 H31            2.7920     4.0321     0.6947 H       
  32 H32            4.8905     5.3020     0.4960 H       
  33 H33            6.8128     1.8687    -1.1709 H       
  34 H34            4.7170     0.5951    -0.9679 H       
  35 H35           -4.3538     0.3833    -2.0905 H       
  36 H36           -6.5665     1.4741    -2.3817 H       
  37 H37           -7.1172     3.4623    -1.0416 H       
  38 H38           -3.4308     3.3568     0.8597 H       
@<TRIPOS>BOND
   1    1    2 ar
   2    1    7 1
   3    1    6 ar
   4    2    3 ar
   5    2   28 1
   6    3    4 ar
   7    4    5 ar
   8    4   27 1
   9    5    6 ar
  10    5   11 1
  11    6   29 1
  12    7    8 2
  13    7    9 am
  14    9   10 1
  15    9   30 1
  16   10   12 ar
  17   10   16 ar
  18   11   22 ar
  19   11   26 ar
  20   12   13 ar
  21   12   31 1
  22   13   14 ar
  23   13   32 1
  24   14   15 ar
  25   14   17 1
  26   15   16 ar
  27   15   33 1
  28   16   34 1
  29   17   18 1
  30   18   19 1
  31   18   20 1
  32   18   21 1
  33   22   23 ar
  34   22   35 1
  35   23   24 ar
  36   23   36 1
  37   24   25 ar
  38   24   37 1
  39   25   26 ar
  40   26   38 1

#	End of record

