#	Name: ASD01880375
#	Creating user name:	WinNT
#	Creation time:	15. 06. 2019 19:40

#	Modifying user name:	WinNT
#	Modification time:	15. 06. 2019 19:40

#	Program:	/corina/corina34_cracker 3.40 0067  02.08.2006

@<TRIPOS>MOLECULE
ASD01880375
  48   51    0    0    0
SMALL
NO_CHARGES


@<TRIPOS>ATOM
   1 C1            -0.0158     1.3166     0.0093 C.ar    
   2 N2             0.0021    -0.0041     0.0020 N.ar    
   3 C3            -1.1218    -0.7055     0.0094 C.ar    
   4 C4            -2.3611    -0.0158     0.0254 C.ar    
   5 C5            -2.3234     1.3812     0.0325 C.ar    
   6 N6            -1.1363     2.0007     0.0291 N.ar    
   7 C7            -3.7205    -0.5227     0.0357 C.2     
   8 C8            -4.6572     0.4056     0.0497 C.2     
   9 S9            -3.9623     2.0156     0.0517 S.3     
  10 C10           -6.1367     0.1192     0.0623 C.3     
  11 N11           -1.0871    -2.0883     0.0012 N.pl3   
  12 C12            0.1995    -2.7886    -0.0158 C.3     
  13 C13           -6.6162     0.0160     1.4872 C.ar    
  14 C14           -7.0636     1.1440     2.1493 C.ar    
  15 C15           -7.5035     1.0494     3.4564 C.ar    
  16 C16           -7.4963    -0.1733     4.1012 C.ar    
  17 C17           -7.0497    -1.3014     3.4389 C.ar    
  18 C18           -6.6140    -1.2076     2.1304 C.ar    
  19 C19            1.2933     2.0630     0.0008 C.3     
  20 C20           -0.0386    -4.2767    -0.0219 C.ar    
  21 C21           -0.1598    -4.9514    -1.2227 C.ar    
  22 C22           -0.3782    -6.3154    -1.2309 C.ar    
  23 C23           -0.4758    -7.0083    -0.0330 C.ar    
  24 C24           -0.3539    -6.3291     1.1705 C.ar    
  25 C25           -0.1300    -4.9659     1.1733 C.ar    
  26 O26           -0.6910    -8.3502    -0.0384 O.3     
  27 C27           -0.7806    -8.9980     1.2321 C.3     
  28 H28           -3.9477    -1.5785     0.0318 H       
  29 H29           -6.6674     0.9266    -0.4421 H       
  30 H30           -6.3292    -0.8209    -0.4548 H       
  31 H31           -1.9147    -2.5942     0.0067 H       
  32 H32            0.7553    -2.5060    -0.9099 H       
  33 H33            0.7733    -2.5161     0.8700 H       
  34 H34           -7.0692     2.0993     1.6454 H       
  35 H35           -7.8524     1.9308     3.9738 H       
  36 H36           -7.8393    -0.2471     5.1227 H       
  37 H37           -7.0438    -2.2566     3.9428 H       
  38 H38           -6.2651    -2.0890     1.6129 H       
  39 H39            1.5991     2.2485    -1.0289 H       
  40 H40            1.1731     3.0133     0.5209 H       
  41 H41            2.0546     1.4670     0.5042 H       
  42 H42           -0.0841    -4.4114    -2.1549 H       
  43 H43           -0.4731    -6.8419    -2.1691 H       
  44 H44           -0.4295    -6.8663     2.1044 H       
  45 H45           -0.0349    -4.4366     2.1099 H       
  46 H46            0.1502    -8.8529     1.7804 H       
  47 H47           -1.6072    -8.5711     1.8001 H       
  48 H48           -0.9532   -10.0642     1.0850 H       
@<TRIPOS>BOND
   1    1    2 ar
   2    1   19 1
   3    1    6 ar
   4    2    3 ar
   5    3    4 ar
   6    3   11 1
   7    4    5 ar
   8    4    7 1
   9    5    6 ar
  10    5    9 1
  11    7    8 2
  12    7   28 1
  13    8    9 1
  14    8   10 1
  15   10   13 1
  16   10   29 1
  17   10   30 1
  18   11   12 1
  19   11   31 1
  20   12   20 1
  21   12   32 1
  22   12   33 1
  23   13   14 ar
  24   13   18 ar
  25   14   15 ar
  26   14   34 1
  27   15   16 ar
  28   15   35 1
  29   16   17 ar
  30   16   36 1
  31   17   18 ar
  32   17   37 1
  33   18   38 1
  34   19   39 1
  35   19   40 1
  36   19   41 1
  37   20   21 ar
  38   20   25 ar
  39   21   22 ar
  40   21   42 1
  41   22   23 ar
  42   22   43 1
  43   23   24 ar
  44   23   26 1
  45   24   25 ar
  46   24   44 1
  47   25   45 1
  48   26   27 1
  49   27   46 1
  50   27   47 1
  51   27   48 1

#	End of record

