#	Name: ASD01030006
#	Creating user name:	WinNT
#	Creation time:	15. 06. 2019 18:58

#	Modifying user name:	WinNT
#	Modification time:	15. 06. 2019 18:58

#	Program:	/corina/corina34_cracker 3.40 0067  02.08.2006

@<TRIPOS>MOLECULE
ASD01030006
  60   59    0    0    0
SMALL
NO_CHARGES


@<TRIPOS>ATOM
   1 C1            -0.0184     1.5028     0.0103 C.2     
   2 C2             0.0021    -0.0041     0.0020 C.3     
   3 C3             1.4513    -0.4944    -0.0145 C.3     
   4 C4             1.4720    -2.0242    -0.0229 C.3     
   5 C5             2.9213    -2.5145    -0.0393 C.3     
   6 C6             2.9420    -4.0444    -0.0478 C.3     
   7 C7             4.3912    -4.5347    -0.0642 C.3     
   8 C8             4.4120    -6.0645    -0.0726 C.3     
   9 C9             5.8612    -6.5548    -0.0891 C.3     
  10 C10            5.8819    -8.0846    -0.0975 C.3     
  11 C11            7.3311    -8.5750    -0.1140 C.3     
  12 C12            7.3519   -10.1048    -0.1224 C.3     
  13 C13            8.8011   -10.5951    -0.1389 C.3     
  14 C14            8.8219   -12.1249    -0.1473 C.3     
  15 C15           10.2711   -12.6152    -0.1638 C.3     
  16 C16           10.2918   -14.1451    -0.1722 C.3     
  17 C17           11.7410   -14.6354    -0.1886 C.3     
  18 C18           11.7618   -16.1652    -0.1971 C.3     
  19 O19            1.0197     2.1211     0.0037 O.2     
  20 O20           -1.1898     2.1580     0.0194 O.3     
  21 S21           13.4800   -16.7466    -0.2166 S.o2    
  22 O22           14.0977   -16.4352    -1.4579 O.2     
  23 O23           14.1213   -16.4485     1.0160 O.2     
  24 O24           13.3674   -18.2644    -0.2237 O.3     
  25 H25           -0.4983    -0.3791     0.8948 H       
  26 H26           -0.5153    -0.3696    -0.8850 H       
  27 H27            1.9516    -0.1193    -0.9073 H       
  28 H28            1.9686    -0.1289     0.8726 H       
  29 H29            0.9717    -2.3993     0.8699 H       
  30 H30            0.9547    -2.3897    -0.9099 H       
  31 H31            3.4216    -2.1395    -0.9321 H       
  32 H32            3.4386    -2.1490     0.8477 H       
  33 H33            2.4417    -4.4194     0.8450 H       
  34 H34            2.4247    -4.4099    -0.9348 H       
  35 H35            4.8916    -4.1596    -0.9570 H       
  36 H36            4.9085    -4.1692     0.8228 H       
  37 H37            3.9116    -6.4396     0.8202 H       
  38 H38            3.8946    -6.4300    -0.9597 H       
  39 H39            6.3615    -6.1797    -0.9819 H       
  40 H40            6.3785    -6.1893     0.7980 H       
  41 H41            5.3816    -8.4597     0.7953 H       
  42 H42            5.3646    -8.4502    -0.9846 H       
  43 H43            7.8315    -8.1999    -1.0068 H       
  44 H44            7.8485    -8.2094     0.7731 H       
  45 H45            6.8516   -10.4799     0.7704 H       
  46 H46            6.8346   -10.4703    -1.0095 H       
  47 H47            9.3014   -10.2200    -1.0317 H       
  48 H48            9.3184   -10.2296     0.7482 H       
  49 H49            8.3215   -12.5000     0.7455 H       
  50 H50            8.3045   -12.4904    -1.0343 H       
  51 H51           10.7714   -12.2402    -1.0566 H       
  52 H52           10.7884   -12.2497     0.7233 H       
  53 H53            9.7915   -14.5202     0.7206 H       
  54 H54            9.7745   -14.5106    -1.0592 H       
  55 H55           12.2414   -14.2603    -1.0814 H       
  56 H56           12.2584   -14.2699     0.6984 H       
  57 H57           11.2614   -16.5403     0.6957 H       
  58 H58           11.2445   -16.5307    -1.0841 H       
  59 H59           -1.1523     3.1243     0.0245 H       
  60 H60           14.2192   -18.7219    -0.2343 H       
@<TRIPOS>BOND
   1    1    2 1
   2    1   19 2
   3    1   20 1
   4    2    3 1
   5    2   25 1
   6    2   26 1
   7    3    4 1
   8    3   27 1
   9    3   28 1
  10    4    5 1
  11    4   29 1
  12    4   30 1
  13    5    6 1
  14    5   31 1
  15    5   32 1
  16    6    7 1
  17    6   33 1
  18    6   34 1
  19    7    8 1
  20    7   35 1
  21    7   36 1
  22    8    9 1
  23    8   37 1
  24    8   38 1
  25    9   10 1
  26    9   39 1
  27    9   40 1
  28   10   11 1
  29   10   41 1
  30   10   42 1
  31   11   12 1
  32   11   43 1
  33   11   44 1
  34   12   13 1
  35   12   45 1
  36   12   46 1
  37   13   14 1
  38   13   47 1
  39   13   48 1
  40   14   15 1
  41   14   49 1
  42   14   50 1
  43   15   16 1
  44   15   51 1
  45   15   52 1
  46   16   17 1
  47   16   53 1
  48   16   54 1
  49   17   18 1
  50   17   55 1
  51   17   56 1
  52   18   21 1
  53   18   57 1
  54   18   58 1
  55   20   59 1
  56   21   22 2
  57   21   23 2
  58   21   24 1
  59   24   60 1

#	End of record

