#	Name: ASD01412074
#	Creating user name:	WinNT
#	Creation time:	15. 06. 2019 19:20

#	Modifying user name:	WinNT
#	Modification time:	15. 06. 2019 19:20

#	Program:	/corina/corina34_cracker 3.40 0067  02.08.2006

@<TRIPOS>MOLECULE
ASD01412074
  60   63    0    0    0
SMALL
NO_CHARGES


@<TRIPOS>ATOM
   1 C1             0.4535     1.9194    -1.3889 C.ar    
   2 C2             0.4695     0.5221    -1.4022 C.ar    
   3 C3             1.6356    -0.1741    -1.0833 C.ar    
   4 C4             2.7900     0.5151    -0.7501 C.ar    
   5 C5             2.7859     1.9250    -0.7333 C.ar    
   6 C6             1.6014     2.6260    -1.0575 C.ar    
   7 C7             1.6392    -1.6810    -1.1009 C.3     
   8 C8            -0.7556    -0.2220    -1.7554 C.2     
   9 N9            -1.9152     0.4390    -1.9424 N.am    
  10 O10           -0.7184    -1.4311    -1.8778 O.2     
  11 N11            4.0630     0.1084    -0.3974 N.pl3   
  12 C12            4.8277     1.2088    -0.1679 C.2     
  13 C13            4.0833     2.3228    -0.3624 C.2     
  14 C14            6.2819     1.2585     0.2403 C.3     
  15 O15            6.7609     2.5911     0.0188 O.3     
  16 C16            5.9448     3.6150     0.5938 C.3     
  17 C17            4.6272     3.7197    -0.1879 C.3     
  18 C18            6.4152     0.9012     1.7220 C.3     
  19 C19            7.8820     1.0108     2.1431 C.3     
  20 C20            8.0186     0.6315     3.6190 C.3     
  21 C21            7.0899     0.2717    -0.6048 C.3     
  22 C22           -3.1309    -0.2995    -2.2930 C.3     
  23 C23           -4.2961     0.6801    -2.4468 C.3     
  24 C24           -5.5467    -0.0795    -2.8074 C.2     
  25 N25           -5.6770    -0.8936    -3.8190 N.2     
  26 C26           -6.9236    -1.3884    -3.8308 C.2     
  27 C27           -7.5912    -0.8609    -2.7869 C.2     
  28 N28           -6.7164    -0.0350    -2.1340 N.pl3   
  29 C29            1.5864     4.0579    -1.0451 C.1     
  30 N30            1.5745     5.1938    -1.0352 N.1     
  31 C31            6.9921     0.6577    -2.0583 C.2     
  32 O32            6.2874     1.5806    -2.3922 O.2     
  33 O33            7.6879    -0.0239    -2.9819 O.3     
  34 H34           -0.4524     2.4505    -1.6412 H       
  35 H35            1.8075    -2.0321    -2.1190 H       
  36 H36            2.4345    -2.0501    -0.4533 H       
  37 H37            0.6783    -2.0509    -0.7432 H       
  38 H38           -1.9448     1.4036    -1.8448 H       
  39 H39            4.3618    -0.8116    -0.3251 H       
  40 H40            5.7312     3.3682     1.6338 H       
  41 H41            6.4714     4.5682     0.5475 H       
  42 H42            4.8117     4.1684    -1.1640 H       
  43 H43            3.9142     4.3270     0.3697 H       
  44 H44            5.8140     1.5886     2.3171 H       
  45 H45            6.0664    -0.1190     1.8825 H       
  46 H46            8.4855     0.3352     1.5370 H       
  47 H47            8.2262     2.0348     1.9978 H       
  48 H48            7.4151     1.3071     4.2252 H       
  49 H49            7.6744    -0.3925     3.7644 H       
  50 H50            9.0636     0.7096     3.9190 H       
  51 H51            8.1338     0.2953    -0.2921 H       
  52 H52            6.6923    -0.7340    -0.4684 H       
  53 H53           -2.9756    -0.8298    -3.2325 H       
  54 H54           -3.3606    -1.0164    -1.5047 H       
  55 H55           -4.4513     1.2104    -1.5072 H       
  56 H56           -4.0664     1.3970    -3.2350 H       
  57 H57           -7.3223    -2.0871    -4.5514 H       
  58 H58           -8.6180    -1.0554    -2.5147 H       
  59 H59           -6.9036     0.4894    -1.3397 H       
  60 H60            7.5930     0.2606    -3.9013 H       
@<TRIPOS>BOND
   1    1    2 ar
   2    1    6 ar
   3    1   34 1
   4    2    3 ar
   5    2    8 1
   6    3    4 ar
   7    3    7 1
   8    4    5 ar
   9    4   11 1
  10    5    6 ar
  11    5   13 1
  12    6   29 1
  13    7   35 1
  14    7   36 1
  15    7   37 1
  16    8    9 am
  17    8   10 2
  18    9   22 1
  19    9   38 1
  20   11   12 1
  21   11   39 1
  22   12   13 2
  23   12   14 1
  24   13   17 1
  25   14   15 1
  26   14   18 1
  27   14   21 1
  28   15   16 1
  29   16   17 1
  30   16   40 1
  31   16   41 1
  32   17   42 1
  33   17   43 1
  34   18   19 1
  35   18   44 1
  36   18   45 1
  37   19   20 1
  38   19   46 1
  39   19   47 1
  40   20   48 1
  41   20   49 1
  42   20   50 1
  43   21   31 1
  44   21   51 1
  45   21   52 1
  46   22   23 1
  47   22   53 1
  48   22   54 1
  49   23   24 1
  50   23   55 1
  51   23   56 1
  52   24   25 2
  53   24   28 1
  54   25   26 1
  55   26   27 2
  56   26   57 1
  57   27   28 1
  58   27   58 1
  59   28   59 1
  60   29   30 3
  61   31   32 2
  62   31   33 1
  63   33   60 1

#	End of record

