#	Name: ASD01914259
#	Creating user name:	WinNT
#	Creation time:	15. 06. 2019 20:03

#	Modifying user name:	WinNT
#	Modification time:	15. 06. 2019 20:03

#	Program:	/corina/corina34_cracker 3.40 0067  02.08.2006

@<TRIPOS>MOLECULE
ASD01914259
  33   35    0    0    0
SMALL
NO_CHARGES


@<TRIPOS>ATOM
   1 N1            -0.0154     1.2837     0.0091 N.2     
   2 N2             0.0021    -0.0041     0.0020 N.pl3   
   3 N3             1.2053    -0.4632    -0.0119 N.2     
   4 C4             2.0488     0.5570    -0.0145 C.ar    
   5 C5             1.2336     1.7251    -0.0005 C.ar    
   6 C6             1.8462     2.9929     0.0001 C.ar    
   7 C7             3.2019     3.0878    -0.0127 C.ar    
   8 C8             4.0060     1.9475    -0.0270 C.ar    
   9 C9             3.4548     0.6976    -0.0276 C.ar    
  10 N10            4.2730    -0.4303    -0.0410 N.pl3   
  11 C11           -1.1987    -0.8433     0.0090 C.3     
  12 C12           -1.6302    -1.1282    -1.4310 C.3     
  13 C13           -2.8367    -1.9713    -1.4240 C.1     
  14 C14           -3.7990    -2.6438    -1.4185 C.1     
  15 C15           -4.9728    -3.4641    -1.4116 C.ar    
  16 C16           -5.5515    -3.8546    -2.6198 C.ar    
  17 C17           -6.6853    -4.6472    -2.5965 C.ar    
  18 C18           -7.2051    -5.0246    -1.3659 C.ar    
  19 C19           -6.5810    -4.6018    -0.2068 C.ar    
  20 N20           -5.4990    -3.8518    -0.2556 N.ar    
  21 H21            1.2407     3.8871     0.0103 H       
  22 H22            3.6653     4.0634    -0.0122 H       
  23 H23            5.0806     2.0548    -0.0377 H       
  24 H24            3.8779    -1.3162    -0.0414 H       
  25 H25            5.2378    -0.3296    -0.0500 H       
  26 H26           -0.9820    -1.7834     0.5161 H       
  27 H27           -2.0015    -0.3245     0.5329 H       
  28 H28           -1.8469    -0.1880    -1.9381 H       
  29 H29           -0.8274    -1.6469    -1.9549 H       
  30 H30           -5.1208    -3.5424    -3.5597 H       
  31 H31           -7.1557    -4.9648    -3.5153 H       
  32 H32           -8.0893    -5.6426    -1.3143 H       
  33 H33           -6.9837    -4.8938     0.7518 H       
@<TRIPOS>BOND
   1    1    2 1
   2    1    5 2
   3    2    3 1
   4    2   11 1
   5    3    4 2
   6    4    5 ar
   7    4    9 ar
   8    5    6 ar
   9    6    7 ar
  10    6   21 1
  11    7    8 ar
  12    7   22 1
  13    8    9 ar
  14    8   23 1
  15    9   10 1
  16   10   24 1
  17   10   25 1
  18   11   12 1
  19   11   26 1
  20   11   27 1
  21   12   13 1
  22   12   28 1
  23   12   29 1
  24   13   14 3
  25   14   15 1
  26   15   16 ar
  27   15   20 ar
  28   16   17 ar
  29   16   30 1
  30   17   18 ar
  31   17   31 1
  32   18   19 ar
  33   18   32 1
  34   19   20 ar
  35   19   33 1

#	End of record

