#	Name: ASD02448078
#	Creating user name:	WinNT
#	Creation time:	15. 06. 2019 20:21

#	Modifying user name:	WinNT
#	Modification time:	15. 06. 2019 20:21

#	Program:	/corina/corina34_cracker 3.40 0067  02.08.2006

@<TRIPOS>MOLECULE
ASD02448078
  80   85    0    0    0
SMALL
NO_CHARGES


@<TRIPOS>ATOM
   1 C1             0.1445     1.3911     0.2134 C.ar    
   2 C2             0.1907     0.0172     0.3392 C.ar    
   3 C3             1.4136    -0.6279     0.4643 C.ar    
   4 C4             2.5906     0.1084     0.4633 C.ar    
   5 C5             2.5453     1.4824     0.3374 C.ar    
   6 C6             1.3219     2.1282     0.2118 C.ar    
   7 N7             1.2756     3.5197     0.0839 N.am    
   8 C8             0.2290     4.3336    -0.5479 C.3     
   9 C9             0.5557     5.7904    -0.4759 C.2     
  10 N10            1.7134     6.0766     0.1362 N.am    
  11 S11            2.3930     4.6363     0.6205 S.o2    
  12 O12           -0.1698     6.6466    -0.9357 O.2     
  13 O13            2.3669     4.6171     2.0411 O.2     
  14 O14            3.5694     4.4466    -0.1537 O.2     
  15 N15            1.4601    -2.0248     0.5923 N.pl3   
  16 C16            0.8229    -2.7743     1.5443 C.2     
  17 C17            2.1411    -2.8849    -0.2093 C.2     
  18 N18            1.9474    -4.1018     0.2170 N.2     
  19 C19            1.1399    -4.0721     1.2965 C.2     
  20 C20            0.6794    -5.2478     2.0755 C.ar    
  21 C21            1.0828    -6.5318     1.7090 C.ar    
  22 C22           -0.1529    -5.0727     3.1789 C.ar    
  23 C23           -0.5788    -6.1697     3.9004 C.ar    
  24 C24           -0.1806    -7.4425     3.5298 C.ar    
  25 C25            0.6510    -7.6224     2.4376 C.ar    
  26 Cl26          -0.7197    -8.8174     4.4422 Cl      
  27 Cl27           2.1251    -6.7583     0.3393 Cl      
  28 C28            2.9827    -2.4958    -1.3974 C.3     
  29 C29            2.1043    -2.3700    -2.6154 C.ar    
  30 C30            1.6086    -1.1320    -2.9825 C.ar    
  31 C31            1.8016    -3.4920    -3.3655 C.ar    
  32 C32            0.9980    -3.3825    -4.4823 C.ar    
  33 C33            0.4915    -2.1387    -4.8537 C.ar    
  34 C34            0.8041    -1.0109    -4.0974 C.ar    
  35 C35           -0.3725    -2.0146    -6.0537 C.ar    
  36 C36           -0.8790    -0.7708    -6.4250 C.ar    
  37 C37           -0.6756    -3.1405    -6.8165 C.ar    
  38 C38           -1.4798    -3.0194    -7.9316 C.ar    
  39 C39           -1.9842    -1.7831    -8.2927 C.ar    
  40 C40           -1.6822    -0.6612    -7.5421 C.ar    
  41 C41           -2.8609    -1.6569    -9.5119 C.3     
  42 C42           -4.1057    -2.5292    -9.3375 C.3     
  43 C43           -3.2821    -0.1966    -9.6883 C.3     
  44 C44           -2.0850    -2.1167   -10.7478 C.3     
  45 C45            0.0922     3.9227    -2.0153 C.3     
  46 C46            1.3877     4.2515    -2.7599 C.3     
  47 H47           -0.8067     1.8924     0.1116 H       
  48 H48           -0.7247    -0.5560     0.3408 H       
  49 H49            3.5417    -0.3937     0.5613 H       
  50 H50            3.4609     2.0551     0.3370 H       
  51 H51           -0.7183     4.1546    -0.0392 H       
  52 H52            2.0857     6.9617     0.2745 H       
  53 H53            0.1907    -2.4054     2.3384 H       
  54 H54           -0.4641    -4.0802     3.4696 H       
  55 H55           -1.2237    -6.0345     4.7562 H       
  56 H56            0.9588    -8.6175     2.1525 H       
  57 H57            3.4698    -1.5409    -1.2005 H       
  58 H58            3.7395    -3.2605    -1.5725 H       
  59 H59            1.8511    -0.2585    -2.3954 H       
  60 H60            2.1950    -4.4556    -3.0770 H       
  61 H61            0.7625    -4.2591    -5.0675 H       
  62 H62            0.4138    -0.0445    -4.3806 H       
  63 H63           -0.6438     0.1058    -5.8397 H       
  64 H64           -0.2817    -4.1062    -6.5359 H       
  65 H65           -1.7154    -3.8914    -8.5236 H       
  66 H66           -2.0789     0.3017    -7.8283 H       
  67 H67           -4.6584    -2.2016    -8.4570 H       
  68 H68           -4.7398    -2.4380   -10.2193 H       
  69 H69           -3.8056    -3.5696    -9.2118 H       
  70 H70           -2.3953     0.4248    -9.8126 H       
  71 H71           -3.9162    -0.1054   -10.5702 H       
  72 H72           -3.8349     0.1310    -8.8079 H       
  73 H73           -1.7849    -3.1571   -10.6221 H       
  74 H74           -2.7191    -2.0255   -11.6297 H       
  75 H75           -1.1982    -1.4953   -10.8721 H       
  76 H76           -0.1002     2.8516    -2.0763 H       
  77 H77           -0.7359     4.4670    -2.4693 H       
  78 H78            1.5339     5.3315    -2.7753 H       
  79 H79            2.2284     3.7781    -2.2527 H       
  80 H80            1.3237     3.8789    -3.7823 H       
@<TRIPOS>BOND
   1    1    2 ar
   2    1    6 ar
   3    1   47 1
   4    2    3 ar
   5    2   48 1
   6    3    4 ar
   7    3   15 1
   8    4    5 ar
   9    4   49 1
  10    5    6 ar
  11    5   50 1
  12    6    7 1
  13    7    8 1
  14    7   11 am
  15    8    9 1
  16    8   45 1
  17    8   51 1
  18    9   10 am
  19    9   12 2
  20   10   11 am
  21   10   52 1
  22   11   13 2
  23   11   14 2
  24   15   16 1
  25   15   17 1
  26   16   19 2
  27   16   53 1
  28   17   18 2
  29   17   28 1
  30   18   19 1
  31   19   20 1
  32   20   21 ar
  33   20   22 ar
  34   21   27 1
  35   21   25 ar
  36   22   23 ar
  37   22   54 1
  38   23   24 ar
  39   23   55 1
  40   24   25 ar
  41   24   26 1
  42   25   56 1
  43   28   29 1
  44   28   57 1
  45   28   58 1
  46   29   30 ar
  47   29   31 ar
  48   30   34 ar
  49   30   59 1
  50   31   32 ar
  51   31   60 1
  52   32   33 ar
  53   32   61 1
  54   33   34 ar
  55   33   35 1
  56   34   62 1
  57   35   36 ar
  58   35   37 ar
  59   36   40 ar
  60   36   63 1
  61   37   38 ar
  62   37   64 1
  63   38   39 ar
  64   38   65 1
  65   39   41 1
  66   39   40 ar
  67   40   66 1
  68   41   42 1
  69   41   44 1
  70   41   43 1
  71   42   67 1
  72   42   68 1
  73   42   69 1
  74   43   70 1
  75   43   71 1
  76   43   72 1
  77   44   73 1
  78   44   74 1
  79   44   75 1
  80   45   46 1
  81   45   76 1
  82   45   77 1
  83   46   78 1
  84   46   79 1
  85   46   80 1

#	End of record

