#	Name: ASD02560253
#	Creating user name:	WinNT
#	Creation time:	15. 06. 2019 20:24

#	Modifying user name:	WinNT
#	Modification time:	15. 06. 2019 20:24

#	Program:	/corina/corina34_cracker 3.40 0067  02.08.2006

@<TRIPOS>MOLECULE
ASD02560253
  32   34    0    0    0
SMALL
NO_CHARGES


@<TRIPOS>ATOM
   1 N1             0.0291     1.2811     0.3719 N.2     
   2 N2             0.0478    -0.0053     0.3707 N.2     
   3 C3             1.2552    -0.4210     0.0749 C.2     
   4 O4             2.0181     0.6714    -0.1157 O.3     
   5 C5             1.2131     1.7339     0.0794 C.2     
   6 C6             1.6116     3.1836    -0.0230 C.3     
   7 N7             1.6684    -1.7377    -0.0232 N.pl3   
   8 C8             0.7351    -2.7733     0.0852 C.ar    
   9 C9            -0.5812    -2.5676    -0.3079 C.ar    
  10 C10           -1.5012    -3.5930    -0.2000 C.ar    
  11 C11           -1.1111    -4.8248     0.2994 C.ar    
  12 C12            0.1993    -5.0313     0.6918 C.ar    
  13 C13            1.1241    -4.0112     0.5806 C.ar    
  14 C14            2.0843     3.6709     1.3224 C.ar    
  15 C15            3.4204     3.5676     1.6655 C.ar    
  16 C16            3.8538     4.0156     2.9007 C.ar    
  17 C17            2.9520     4.5663     3.7918 C.ar    
  18 C18            1.6168     4.6694     3.4498 C.ar    
  19 C19            1.1832     4.2270     2.2126 C.ar    
  20 Cl20          -2.2688    -6.1114     0.4339 Cl      
  21 Cl21          -3.1467    -3.3373    -0.6903 Cl      
  22 Cl22           4.5530     2.8754     0.5467 Cl      
  23 Cl23          -0.4938     4.3571     1.7829 Cl      
  24 H24            2.4163     3.2887    -0.7507 H       
  25 H25            0.7534     3.7747    -0.3425 H       
  26 H26            2.6056    -1.9425    -0.1672 H       
  27 H27           -0.8853    -1.6071    -0.6970 H       
  28 H28            0.5006    -5.9924     1.0815 H       
  29 H29            2.1469    -4.1734     0.8869 H       
  30 H30            4.8968     3.9347     3.1689 H       
  31 H31            3.2908     4.9159     4.7559 H       
  32 H32            0.9125     5.0991     4.1467 H       
@<TRIPOS>BOND
   1    1    2 1
   2    1    5 2
   3    2    3 2
   4    3    4 1
   5    3    7 1
   6    4    5 1
   7    5    6 1
   8    6   14 1
   9    6   24 1
  10    6   25 1
  11    7    8 1
  12    7   26 1
  13    8    9 ar
  14    8   13 ar
  15    9   10 ar
  16    9   27 1
  17   10   11 ar
  18   10   21 1
  19   11   12 ar
  20   11   20 1
  21   12   13 ar
  22   12   28 1
  23   13   29 1
  24   14   15 ar
  25   14   19 ar
  26   15   16 ar
  27   15   22 1
  28   16   17 ar
  29   16   30 1
  30   17   18 ar
  31   17   31 1
  32   18   19 ar
  33   18   32 1
  34   19   23 1

#	End of record

