#	Name: ASD08178331
#	Creating user name:	WinNT
#	Creation time:	15. 06. 2019 21:18

#	Modifying user name:	WinNT
#	Modification time:	15. 06. 2019 21:18

#	Program:	/corina/corina34_cracker 3.40 0067  02.08.2006

@<TRIPOS>MOLECULE
ASD08178331
  82   84    0    0    0
SMALL
NO_CHARGES


@<TRIPOS>ATOM
   1 N1            -0.0168     1.3902     0.0097 N.am    
   2 C2            -0.2173     0.0103     0.0231 C.ar    
   3 C3             0.8682    -0.8557    -0.0924 C.ar    
   4 N4            -1.4399    -0.4832     0.1514 N.ar    
   5 N5            -1.6668    -1.7463     0.1688 N.ar    
   6 C6            -0.7003    -2.6367     0.0604 C.ar    
   7 C7             0.6159    -2.2190    -0.0731 C.ar    
   8 C8            -1.0248    -4.1081     0.0877 C.3     
   9 C9            -1.8116    -4.4334     1.3589 C.3     
  10 C10           -2.1411    -5.9272     1.3866 C.3     
  11 C11           -2.9279    -6.2525     2.6578 C.3     
  12 C12           -3.2525    -7.7239     2.6850 C.2     
  13 N13           -2.5215    -8.6579     3.2055 N.2     
  14 N14           -2.9692    -9.8357     3.1264 N.2     
  15 C15           -4.1131   -10.0076     2.5356 C.2     
  16 S16           -4.6997    -8.4826     2.0206 S.3     
  17 N17           -4.7576   -11.2268     2.3560 N.am    
  18 C18           -4.1931   -12.3614     2.8146 C.2     
  19 C19           -4.8915   -13.6826     2.6200 C.3     
  20 O20           -3.1230   -12.3193     3.3840 O.2     
  21 C21           -4.0570   -14.7850     3.2193 C.ar    
  22 C22           -4.2369   -15.1474     4.5409 C.ar    
  23 C23           -3.4712   -16.1588     5.0908 C.ar    
  24 C24           -2.5262   -16.8078     4.3187 C.ar    
  25 C25           -2.3469   -16.4460     2.9965 C.ar    
  26 C26           -3.1153   -15.4378     2.4456 C.ar    
  27 C27           -1.0749     2.2250     0.0166 C.2     
  28 C28           -0.8601     3.7130     0.1197 C.3     
  29 O29           -2.2000     1.7786    -0.0600 O.2     
  30 C30           -0.0205     4.1905    -1.0669 C.3     
  31 C31           -2.2138     4.4259     0.1062 C.3     
  32 C32           -0.1279     4.0335     1.4243 C.3     
  33 O33           -0.9121     3.5876     2.5326 O.3     
  34 O34           -2.0101     5.8369     0.2039 O.3     
  35 C35           -3.6667   -16.5532     6.5321 C.3     
  36 N36           -4.6798   -17.6080     6.6166 N.am    
  37 C37           -5.0210   -18.1201     7.8157 C.2     
  38 O38           -5.9521   -19.0895     7.8934 O.3     
  39 O39           -4.4883   -17.7069     8.8266 O.2     
  40 C40           -6.2697   -19.5939     9.2174 C.3     
  41 C41           -6.7941   -18.4494    10.0870 C.3     
  42 C42           -7.3401   -20.6814     9.1057 C.3     
  43 C43           -5.0093   -20.1824     9.8548 C.3     
  44 H44            0.8842     1.7494    -0.0006 H       
  45 H45            1.8745    -0.4770    -0.1943 H       
  46 H46            1.4198    -2.9346    -0.1633 H       
  47 H47           -1.6240    -4.3643    -0.7861 H       
  48 H48           -0.0997    -4.6845     0.0755 H       
  49 H49           -1.2124    -4.1772     2.2326 H       
  50 H50           -2.7367    -3.8570     1.3711 H       
  51 H51           -2.7403    -6.1834     0.5128 H       
  52 H52           -1.2160    -6.5036     1.3744 H       
  53 H53           -2.3287    -5.9964     3.5315 H       
  54 H54           -3.8530    -5.6761     2.6700 H       
  55 H55           -5.6135   -11.2605     1.9007 H       
  56 H56           -5.8642   -13.6552     3.1112 H       
  57 H57           -5.0276   -13.8681     1.5546 H       
  58 H58           -4.9753   -14.6402     5.1442 H       
  59 H59           -1.9276   -17.5974     4.7485 H       
  60 H60           -1.6082   -16.9529     2.3933 H       
  61 H61           -2.9753   -15.1552     1.4127 H       
  62 H62           -0.5421     3.9622    -1.9964 H       
  63 H63            0.1349     5.2667    -0.9924 H       
  64 H64            0.9440     3.6826    -1.0573 H       
  65 H65           -2.7354     4.1976    -0.8233 H       
  66 H66           -2.8120     4.0858     0.9515 H       
  67 H67            0.8365     3.5256     1.4339 H       
  68 H68            0.0275     5.1098     1.4988 H       
  69 H69           -0.5082     3.7585     3.3944 H       
  70 H70           -2.8276     6.3535     0.2012 H       
  71 H71           -2.7247   -16.9207     6.9391 H       
  72 H72           -3.9962   -15.6861     7.1046 H       
  73 H73           -5.1051   -17.9378     5.8096 H       
  74 H74           -7.6920   -18.0302     9.6329 H       
  75 H75           -7.0325   -18.8281    11.0809 H       
  76 H76           -6.0315   -17.6747    10.1666 H       
  77 H77           -6.9664   -21.4967     8.4863 H       
  78 H78           -7.5784   -21.0600    10.0997 H       
  79 H79           -8.2379   -20.2621     8.6517 H       
  80 H80           -4.2468   -19.4076     9.9344 H       
  81 H81           -5.2477   -20.5610    10.8487 H       
  82 H82           -4.6357   -20.9977     9.2353 H       
@<TRIPOS>BOND
   1    1    2 1
   2    1   27 am
   3    1   44 1
   4    2    3 ar
   5    2    4 ar
   6    3    7 ar
   7    3   45 1
   8    4    5 ar
   9    5    6 ar
  10    6    7 ar
  11    6    8 1
  12    7   46 1
  13    8    9 1
  14    8   47 1
  15    8   48 1
  16    9   10 1
  17    9   49 1
  18    9   50 1
  19   10   11 1
  20   10   51 1
  21   10   52 1
  22   11   12 1
  23   11   53 1
  24   11   54 1
  25   12   13 2
  26   12   16 1
  27   13   14 1
  28   14   15 2
  29   15   16 1
  30   15   17 1
  31   17   18 am
  32   17   55 1
  33   18   19 1
  34   18   20 2
  35   19   21 1
  36   19   56 1
  37   19   57 1
  38   21   22 ar
  39   21   26 ar
  40   22   23 ar
  41   22   58 1
  42   23   24 ar
  43   23   35 1
  44   24   25 ar
  45   24   59 1
  46   25   26 ar
  47   25   60 1
  48   26   61 1
  49   27   28 1
  50   27   29 2
  51   28   30 1
  52   28   31 1
  53   28   32 1
  54   30   62 1
  55   30   63 1
  56   30   64 1
  57   31   34 1
  58   31   65 1
  59   31   66 1
  60   32   33 1
  61   32   67 1
  62   32   68 1
  63   33   69 1
  64   34   70 1
  65   35   36 1
  66   35   71 1
  67   35   72 1
  68   36   37 am
  69   36   73 1
  70   37   38 1
  71   37   39 2
  72   38   40 1
  73   40   41 1
  74   40   42 1
  75   40   43 1
  76   41   74 1
  77   41   75 1
  78   41   76 1
  79   42   77 1
  80   42   78 1
  81   42   79 1
  82   43   80 1
  83   43   81 1
  84   43   82 1

#	End of record

