#	Name: ASD03091019
#	Creating user name:	WinNT
#	Creation time:	15. 06. 2019 20:29

#	Modifying user name:	WinNT
#	Modification time:	15. 06. 2019 20:29

#	Program:	/corina/corina34_cracker 3.40 0067  02.08.2006

@<TRIPOS>MOLECULE
ASD03091019
  49   53    0    0    0
SMALL
NO_CHARGES


@<TRIPOS>ATOM
   1 N1            -0.0151     1.3689     0.0897 N.am    
   2 C2             0.0028    -0.0049     0.0417 C.2     
   3 C3             1.1608    -0.7090    -0.0129 C.2     
   4 C4             2.4349     0.0059    -0.0219 C.ar    
   5 C5             2.4147     1.4201     0.0270 C.ar    
   6 C6             1.1162     2.1007     0.0850 C.2     
   7 O7             1.0614     3.3166     0.1276 O.2     
   8 C8             3.6574    -0.6695    -0.0768 C.ar    
   9 C9             4.8238     0.0398    -0.0828 C.ar    
  10 C10            4.8126     1.4345    -0.0347 C.ar    
  11 C11            3.6157     2.1280     0.0201 C.ar    
  12 N12            6.0200     2.1372    -0.0420 N.3     
  13 C13            6.4811     2.3778    -1.4166 C.3     
  14 C14            7.0462     1.4277     0.7312 C.3     
  15 C15            8.3105     2.2535     0.9107 C.3     
  16 N16            8.9331     2.5398    -0.3907 N.3     
  17 C17            8.8404     1.4958    -1.3886 C.3     
  18 C18            7.4082     1.2513    -1.8349 C.3     
  19 C19            7.1124     3.7572    -1.5309 C.3     
  20 C20            8.4812     3.8476    -0.8871 C.3     
  21 C21           -1.2807    -0.7380     0.0504 C.ar    
  22 C22           -2.4871    -0.0383     0.1066 C.ar    
  23 C23           -3.6821    -0.7281     0.1139 C.ar    
  24 C24           -3.6869    -2.1104     0.0662 C.ar    
  25 C25           -2.4937    -2.8114     0.0103 C.ar    
  26 C26           -1.2915    -2.1329    -0.0034 C.ar    
  27 Cl27          -2.5101    -4.5464    -0.0487 Cl      
  28 H28           -0.8699     1.8263     0.1240 H       
  29 H29            1.1412    -1.7882    -0.0490 H       
  30 H30            3.6792    -1.7487    -0.1139 H       
  31 H31            5.7669    -0.4848    -0.1248 H       
  32 H32            3.6124     3.2074     0.0571 H       
  33 H33            5.6120     2.3477    -2.0738 H       
  34 H34            6.6419     1.1830     1.7134 H       
  35 H35            7.2997     0.5016     0.2152 H       
  36 H36            8.0590     3.1929     1.4030 H       
  37 H37            9.0152     1.7007     1.5320 H       
  38 H38            9.4368     1.7811    -2.2552 H       
  39 H39            9.2435     0.5725    -0.9727 H       
  40 H40            7.0542     0.3191    -1.3946 H       
  41 H41            7.3863     1.1592    -2.9208 H       
  42 H42            7.2051     4.0128    -2.5864 H       
  43 H43            6.4537     4.4836    -1.0547 H       
  44 H44            8.4370     4.5486    -0.0537 H       
  45 H45            9.1967     4.2156    -1.6225 H       
  46 H46           -2.4852     1.0410     0.1446 H       
  47 H47           -4.6160    -0.1873     0.1574 H       
  48 H48           -4.6250    -2.6454     0.0729 H       
  49 H49           -0.3615    -2.6801    -0.0473 H       
@<TRIPOS>BOND
   1    1    2 1
   2    1    6 am
   3    1   28 1
   4    2    3 2
   5    2   21 1
   6    3    4 1
   7    3   29 1
   8    4    5 ar
   9    4    8 ar
  10    5    6 1
  11    5   11 ar
  12    6    7 2
  13    8    9 ar
  14    8   30 1
  15    9   10 ar
  16    9   31 1
  17   10   11 ar
  18   10   12 1
  19   11   32 1
  20   12   14 1
  21   12   13 1
  22   13   19 1
  23   13   18 1
  24   13   33 1
  25   14   15 1
  26   14   34 1
  27   14   35 1
  28   15   16 1
  29   15   36 1
  30   15   37 1
  31   16   17 1
  32   16   20 1
  33   17   18 1
  34   17   38 1
  35   17   39 1
  36   18   40 1
  37   18   41 1
  38   19   20 1
  39   19   42 1
  40   19   43 1
  41   20   44 1
  42   20   45 1
  43   21   22 ar
  44   21   26 ar
  45   22   23 ar
  46   22   46 1
  47   23   24 ar
  48   23   47 1
  49   24   25 ar
  50   24   48 1
  51   25   26 ar
  52   25   27 1
  53   26   49 1

#	End of record

