#	Name: ASD01840459
#	Creating user name:	WinNT
#	Creation time:	15. 06. 2019 19:37

#	Modifying user name:	WinNT
#	Modification time:	15. 06. 2019 19:37

#	Program:	/corina/corina34_cracker 3.40 0067  02.08.2006

@<TRIPOS>MOLECULE
ASD01840459
  50   53    0    0    0
SMALL
NO_CHARGES


@<TRIPOS>ATOM
   1 C1            -0.1017     0.6783    -0.7463 C.ar    
   2 C2             0.0370    -0.5831    -1.2824 C.ar    
   3 N3             1.1811    -1.2346    -1.1633 N.ar    
   4 N4             2.1970    -0.7416    -0.5591 N.ar    
   5 C5             1.0080     1.2408    -0.0752 C.ar    
   6 C6             1.1535     2.5282     0.5784 C.2     
   7 C7             2.1770     0.4715    -0.0021 C.ar    
   8 S8             3.4247     1.3534     0.8674 S.3     
   9 C9             2.3769     2.7345     1.1260 C.2     
  10 C10           -1.3962     1.4386    -0.8769 C.3     
  11 C11           -1.1195    -1.2226    -2.0067 C.3     
  12 N12            0.1312     3.4657     0.6375 N.pl3   
  13 C13            2.7706     3.9498     1.8373 C.2     
  14 O14            1.9758     4.8627     1.9689 O.2     
  15 N15            4.0134     4.0596     2.3471 N.am    
  16 C16            4.4078     5.2773     3.0597 C.3     
  17 C17            4.0126     5.1793     4.5476 C.3     
  18 C18            5.3439     5.2743     5.3234 C.3     
  19 N19            6.2657     5.9840     4.3995 N.3     
  20 C20            5.9447     5.4234     3.0617 C.3     
  21 C21            7.5988     5.7403     4.7375 C.ar    
  22 C22            8.4201     5.0347     3.8669 C.ar    
  23 C23            9.7377     4.7960     4.2041 C.ar    
  24 C24           10.2400     5.2580     5.4070 C.ar    
  25 C25            9.4254     5.9606     6.2757 C.ar    
  26 C26            8.1080     6.2078     5.9422 C.ar    
  27 C27            7.2227     6.9790     6.8869 C.3     
  28 H28           -2.0071     1.2710     0.0101 H       
  29 H29           -1.1840     2.5031    -0.9760 H       
  30 H30           -1.9340     1.0916    -1.7593 H       
  31 H31           -1.0725    -0.9654    -3.0649 H       
  32 H32           -1.0654    -2.3053    -1.8932 H       
  33 H33           -2.0572    -0.8596    -1.5859 H       
  34 H34           -0.7891     3.1886     0.5068 H       
  35 H35            0.3373     4.3978     0.8094 H       
  36 H36            4.6466     3.3324     2.2422 H       
  37 H37            3.9436     6.1506     2.6014 H       
  38 H38            3.3558     6.0054     4.8201 H       
  39 H39            3.5251     4.2251     4.7477 H       
  40 H40            5.2093     5.8475     6.2406 H       
  41 H41            5.7244     4.2781     5.5490 H       
  42 H42            6.4192     4.4505     2.9334 H       
  43 H43            6.2624     6.1089     2.2760 H       
  44 H44            8.0283     4.6730     2.9278 H       
  45 H45           10.3766     4.2476     3.5278 H       
  46 H46           11.2707     5.0693     5.6686 H       
  47 H47            9.8208     6.3200     7.2143 H       
  48 H48            6.7328     6.2872     7.5721 H       
  49 H49            7.8266     7.6865     7.4550 H       
  50 H50            6.4681     7.5211     6.3168 H       
@<TRIPOS>BOND
   1    1    2 ar
   2    1    5 ar
   3    1   10 1
   4    2   11 1
   5    2    3 ar
   6    3    4 ar
   7    4    7 ar
   8    5    7 ar
   9    5    6 1
  10    6    9 2
  11    6   12 1
  12    7    8 1
  13    8    9 1
  14    9   13 1
  15   10   28 1
  16   10   29 1
  17   10   30 1
  18   11   31 1
  19   11   32 1
  20   11   33 1
  21   12   34 1
  22   12   35 1
  23   13   14 2
  24   13   15 am
  25   15   16 1
  26   15   36 1
  27   16   17 1
  28   16   20 1
  29   16   37 1
  30   17   18 1
  31   17   38 1
  32   17   39 1
  33   18   19 1
  34   18   40 1
  35   18   41 1
  36   19   20 1
  37   19   21 1
  38   20   42 1
  39   20   43 1
  40   21   22 ar
  41   21   26 ar
  42   22   23 ar
  43   22   44 1
  44   23   24 ar
  45   23   45 1
  46   24   25 ar
  47   24   46 1
  48   25   26 ar
  49   25   47 1
  50   26   27 1
  51   27   48 1
  52   27   49 1
  53   27   50 1

#	End of record

