#	Name: ASD03331342
#	Creating user name:	WinNT
#	Creation time:	15. 06. 2019 20:39

#	Modifying user name:	WinNT
#	Modification time:	15. 06. 2019 20:39

#	Program:	/corina/corina34_cracker 3.40 0067  02.08.2006

@<TRIPOS>MOLECULE
ASD03331342
  64   66    0    0    0
SMALL
NO_CHARGES


@<TRIPOS>ATOM
   1 C1            -0.5448     1.2832    -0.1015 C.3     
   2 C2            -0.4305    -0.2130    -0.2508 C.2     
   3 C3             0.7432    -0.8551    -0.4650 C.2     
   4 C4             2.0666    -0.1402    -0.5827 C.3     
   5 C5             1.7775     1.3489    -0.8192 C.3     
   6 N6             0.7983     1.8245     0.1677 N.3     
   7 N7            -0.8973    -2.3617    -0.3776 N.2     
   8 N8             0.4847    -2.1821    -0.5452 N.am    
   9 C9            -1.4489    -1.1780    -0.2007 C.2     
  10 C10            1.3929    -3.1567    -0.7496 C.2     
  11 O11            2.5674    -2.8749    -0.8810 O.2     
  12 N12            0.9982    -4.4441    -0.8084 N.am    
  13 C13           -2.8925    -0.9120     0.0137 C.ar    
  14 C14           -3.6193    -1.6841     0.9212 C.ar    
  15 C15           -4.9639    -1.4324     1.1181 C.ar    
  16 C16           -5.5901    -0.4161     0.4162 C.ar    
  17 C17           -4.8716     0.3536    -0.4873 C.ar    
  18 C18           -3.5256     0.1131    -0.6860 C.ar    
  19 F19           -5.4878     1.3435    -1.1697 F       
  20 F20           -6.9048    -0.1738     0.6114 F       
  21 F21           -3.0094    -2.6764     1.6059 F       
  22 C22            0.7736     3.2924     0.2196 C.3     
  23 C23            1.3088    -6.6982    -1.6519 C.2     
  24 C24            1.9853    -5.5035    -1.0306 C.3     
  25 C25            2.6085    -5.9086     0.3068 C.3     
  26 C26            1.5076    -6.3724     1.2627 C.3     
  27 O27            0.1020    -6.8071    -1.5993 O.2     
  28 C28            3.6024    -7.0497     0.0815 C.3     
  29 C29            3.3386    -4.7087     0.9135 C.3     
  30 N30            2.0448    -7.6456    -2.2660 N.am    
  31 C31            1.3958    -8.8453    -2.8007 C.3     
  32 C32            2.4484    -9.7518    -3.4418 C.3     
  33 C33            1.7808   -10.9859    -3.9918 C.2     
  34 O34            0.5812   -11.1265    -3.8817 O.2     
  35 N35            2.5168   -11.9333    -4.6059 N.am    
  36 H36           -0.9375     1.7154    -1.0219 H       
  37 H37           -1.2097     1.5199     0.7292 H       
  38 H38            2.6359    -0.2637     0.3385 H       
  39 H39            2.6309    -0.5445    -1.4231 H       
  40 H40            2.7013     1.9185    -0.7175 H       
  41 H41            1.3762     1.4856    -1.8234 H       
  42 H42            0.0605    -4.6691    -0.7036 H       
  43 H43           -5.5271    -2.0293     1.8201 H       
  44 H44           -2.9661     0.7157    -1.3861 H       
  45 H45            0.1006     3.6166     1.0133 H       
  46 H46            1.7779     3.6658     0.4197 H       
  47 H47            0.4240     3.6839    -0.7357 H       
  48 H48            2.7652    -5.1390    -1.6992 H       
  49 H49            0.9874    -7.2272     0.8305 H       
  50 H50            1.9515    -6.6610     2.2155 H       
  51 H51            0.7995    -5.5594     1.4232 H       
  52 H52            4.4132    -6.7041    -0.5598 H       
  53 H53            4.0093    -7.3717     1.0400 H       
  54 H54            3.0927    -7.8864    -0.3964 H       
  55 H55            2.6305    -3.8957     1.0740 H       
  56 H56            3.7825    -4.9973     1.8663 H       
  57 H57            4.1228    -4.3782     0.2325 H       
  58 H58            3.0042    -7.5332    -2.3541 H       
  59 H59            0.8992    -9.3809    -1.9916 H       
  60 H60            0.6596    -8.5564    -3.5507 H       
  61 H61            2.9450    -9.2162    -4.2509 H       
  62 H62            3.1846   -10.0407    -2.6917 H       
  63 H63            3.4762   -11.8208    -4.6939 H       
  64 H64            2.0871   -12.7276    -4.9599 H       
@<TRIPOS>BOND
   1    1    2 1
   2    1    6 1
   3    1   36 1
   4    1   37 1
   5    2    3 2
   6    2    9 1
   7    3    4 1
   8    3    8 1
   9    4    5 1
  10    4   38 1
  11    4   39 1
  12    5    6 1
  13    5   40 1
  14    5   41 1
  15    6   22 1
  16    7    8 1
  17    7    9 2
  18    8   10 am
  19    9   13 1
  20   10   11 2
  21   10   12 am
  22   12   24 1
  23   12   42 1
  24   13   14 ar
  25   13   18 ar
  26   14   15 ar
  27   14   21 1
  28   15   16 ar
  29   15   43 1
  30   16   17 ar
  31   16   20 1
  32   17   18 ar
  33   17   19 1
  34   18   44 1
  35   22   45 1
  36   22   46 1
  37   22   47 1
  38   23   27 2
  39   23   30 am
  40   23   24 1
  41   24   25 1
  42   24   48 1
  43   25   26 1
  44   25   28 1
  45   25   29 1
  46   26   49 1
  47   26   50 1
  48   26   51 1
  49   28   52 1
  50   28   53 1
  51   28   54 1
  52   29   55 1
  53   29   56 1
  54   29   57 1
  55   30   31 1
  56   30   58 1
  57   31   32 1
  58   31   59 1
  59   31   60 1
  60   32   33 1
  61   32   61 1
  62   32   62 1
  63   33   34 2
  64   33   35 am
  65   35   63 1
  66   35   64 1

#	End of record

