#	Name: ASD01913562
#	Creating user name:	WinNT
#	Creation time:	15. 06. 2019 20:01

#	Modifying user name:	WinNT
#	Modification time:	15. 06. 2019 20:01

#	Program:	/corina/corina34_cracker 3.40 0067  02.08.2006

@<TRIPOS>MOLECULE
ASD01913562
  34   36    0    0    0
SMALL
NO_CHARGES


@<TRIPOS>ATOM
   1 C1             0.6604     0.4256    -1.0389 C.ar    
   2 C2             0.0033    -0.0127     0.1063 C.ar    
   3 C3             0.5521     0.2720     1.3487 C.ar    
   4 N4             1.6794     0.9479     1.4470 N.ar    
   5 C5             2.3269     1.3775     0.3815 C.ar    
   6 C6             1.8429     1.1325    -0.8897 C.ar    
   7 C7            -1.0860    -2.0599    -0.1027 C.ar    
   8 C8             0.1374    -2.7175    -0.0103 C.ar    
   9 C9             0.1752    -4.0958    -0.1239 C.ar    
  10 N10           -0.9258    -4.7899    -0.3176 N.ar    
  11 C11           -2.1146    -4.2043    -0.4119 C.ar    
  12 C12           -2.2335    -2.8224    -0.3074 C.ar    
  13 C13           -3.3244    -5.0305    -0.6302 C.2     
  14 N14           -3.2162    -6.3701    -0.7323 N.am    
  15 O15           -1.1597    -0.7092     0.0098 O.3     
  16 O16           -4.4145    -4.5006    -0.7173 O.2     
  17 C17           -4.3505    -7.1448    -0.9370 C.2     
  18 S18           -5.9410    -6.5340    -1.0786 S.3     
  19 C19           -6.5609    -8.1689    -1.2943 C.2     
  20 C20           -5.5288    -9.0132    -1.2407 C.2     
  21 N21           -4.3567    -8.4359    -1.0540 N.2     
  22 C22           -5.6880   -10.5045    -1.3879 C.3     
  23 F23           -5.5782   -10.8543    -2.7380 F       
  24 F24           -4.6893   -11.1547    -0.6550 F       
  25 F25           -6.9443   -10.8891    -0.9072 F       
  26 H26            0.2611     0.2162    -2.0202 H       
  27 H27            0.0503    -0.0635     2.2442 H       
  28 H28            3.2477     1.9286     0.5039 H       
  29 H29            2.3801     1.4878    -1.7567 H       
  30 H30            1.0474    -2.1577     0.1478 H       
  31 H31            1.1225    -4.6097    -0.0528 H       
  32 H32           -3.2007    -2.3480    -0.3840 H       
  33 H33           -2.3460    -6.7931    -0.6628 H       
  34 H34           -7.5956    -8.4405    -1.4432 H       
@<TRIPOS>BOND
   1    1    2 ar
   2    1    6 ar
   3    1   26 1
   4    2    3 ar
   5    2   15 1
   6    3    4 ar
   7    3   27 1
   8    4    5 ar
   9    5    6 ar
  10    5   28 1
  11    6   29 1
  12    7    8 ar
  13    7   12 ar
  14    7   15 1
  15    8    9 ar
  16    8   30 1
  17    9   10 ar
  18    9   31 1
  19   10   11 ar
  20   11   12 ar
  21   11   13 1
  22   12   32 1
  23   13   14 am
  24   13   16 2
  25   14   17 1
  26   14   33 1
  27   17   18 1
  28   17   21 2
  29   18   19 1
  30   19   20 2
  31   19   34 1
  32   20   21 1
  33   20   22 1
  34   22   23 1
  35   22   24 1
  36   22   25 1

#	End of record

