#	Name: ASD03330746
#	Creating user name:	WinNT
#	Creation time:	15. 06. 2019 20:37

#	Modifying user name:	WinNT
#	Modification time:	15. 06. 2019 20:37

#	Program:	/corina/corina34_cracker 3.40 0067  02.08.2006

@<TRIPOS>MOLECULE
ASD03330746
  60   62    0    0    0
SMALL
NO_CHARGES


@<TRIPOS>ATOM
   1 C1            -0.0029     1.3637    -0.1258 C.2     
   2 N2             0.0178     0.0075    -0.2181 N.pl3   
   3 C3             1.2717     1.7667     0.1344 C.2     
   4 N4             2.0514     0.6643     0.1803 N.2     
   5 C5             1.3083    -0.3957    -0.0360 C.2     
   6 C6             1.7896    -1.7939    -0.0748 C.ar    
   7 C7             1.7202     3.1566     0.3305 C.2     
   8 O8             0.9190     4.0692     0.2645 O.2     
   9 C9             3.4643     4.7983     0.7779 C.3     
  10 N10            3.0183     3.4165     0.5830 N.am    
  11 C11            4.9501     4.9086     0.4299 C.3     
  12 C12            3.2544     5.1958     2.2163 C.2     
  13 O13            2.7791     4.4028     3.0013 O.2     
  14 C14           -1.1495    -0.8460    -0.4560 C.3     
  15 C15           -1.9670    -0.2674    -1.6152 C.3     
  16 C16           -2.9654     0.7551    -1.0821 C.3     
  17 N17           -2.4177     1.4760     0.0687 N.3     
  18 C18           -1.2165     2.2393    -0.3012 C.3     
  19 C19            3.0825    -2.0771    -0.5172 C.ar    
  20 C20            0.9544    -2.8330     0.3361 C.ar    
  21 C21            1.4069    -4.1358     0.2984 C.ar    
  22 C22            2.6887    -4.4142    -0.1462 C.ar    
  23 C23            3.5265    -3.3842    -0.5514 C.ar    
  24 C24           -3.4316     2.3504     0.6732 C.3     
  25 N25            3.5948     6.4323     2.6303 N.am    
  26 C26            3.3908     6.8187     4.0286 C.3     
  27 C27            5.1471     4.6262    -1.0609 C.3     
  28 C28            4.4569     5.7171    -1.8822 C.3     
  29 C29            6.6425     4.6134    -1.3843 C.3     
  30 F30            3.1270    -5.6917    -0.1802 F       
  31 F31            4.7758    -3.6614    -0.9846 F       
  32 H32            2.8894     5.4604     0.1304 H       
  33 H33            3.6574     2.6887     0.6356 H       
  34 H34            5.3032     5.9141     0.6589 H       
  35 H35            5.5151     4.1830     1.0149 H       
  36 H36           -0.8187    -1.8530    -0.7105 H       
  37 H37           -1.7652    -0.8800     0.4428 H       
  38 H38           -1.2966     0.2167    -2.3253 H       
  39 H39           -2.5049    -1.0720    -2.1165 H       
  40 H40           -3.2024     1.4686    -1.8713 H       
  41 H41           -3.8778     0.2406    -0.7806 H       
  42 H42           -1.1295     3.1157     0.3411 H       
  43 H43           -1.2911     2.5546    -1.3419 H       
  44 H44            3.7342    -1.2757    -0.8324 H       
  45 H45           -0.0453    -2.6178     0.6837 H       
  46 H46            0.7603    -4.9403     0.6164 H       
  47 H47           -4.2771     1.7493     1.0075 H       
  48 H48           -2.9984     2.8739     1.5255 H       
  49 H49           -3.7715     3.0770    -0.0648 H       
  50 H50            3.9750     7.0665     2.0024 H       
  51 H51            3.7226     7.8468     4.1737 H       
  52 H52            2.3323     6.7401     4.2766 H       
  53 H53            3.9657     6.1566     4.6761 H       
  54 H54            4.7138     3.6569    -1.3074 H       
  55 H55            4.8903     6.6864    -1.6357 H       
  56 H56            4.5973     5.5159    -2.9442 H       
  57 H57            3.3916     5.7262    -1.6518 H       
  58 H58            7.1341     3.8363    -0.7992 H       
  59 H59            6.7828     4.4122    -2.4463 H       
  60 H60            7.0758     5.5827    -1.1378 H       
@<TRIPOS>BOND
   1    1    2 1
   2    1    3 2
   3    1   18 1
   4    2   14 1
   5    2    5 1
   6    3    4 1
   7    3    7 1
   8    4    5 2
   9    5    6 1
  10    6   20 ar
  11    6   19 ar
  12    7    8 2
  13    7   10 am
  14    9   10 1
  15    9   11 1
  16    9   12 1
  17    9   32 1
  18   10   33 1
  19   11   27 1
  20   11   34 1
  21   11   35 1
  22   12   13 2
  23   12   25 am
  24   14   15 1
  25   14   36 1
  26   14   37 1
  27   15   16 1
  28   15   38 1
  29   15   39 1
  30   16   17 1
  31   16   40 1
  32   16   41 1
  33   17   18 1
  34   17   24 1
  35   18   42 1
  36   18   43 1
  37   19   23 ar
  38   19   44 1
  39   20   21 ar
  40   20   45 1
  41   21   22 ar
  42   21   46 1
  43   22   23 ar
  44   22   30 1
  45   23   31 1
  46   24   47 1
  47   24   48 1
  48   24   49 1
  49   25   26 1
  50   25   50 1
  51   26   51 1
  52   26   52 1
  53   26   53 1
  54   27   28 1
  55   27   29 1
  56   27   54 1
  57   28   55 1
  58   28   56 1
  59   28   57 1
  60   29   58 1
  61   29   59 1
  62   29   60 1

#	End of record

