#	Name: ASD01120158
#	Creating user name:	WinNT
#	Creation time:	15. 06. 2019 18:59

#	Modifying user name:	WinNT
#	Modification time:	15. 06. 2019 18:59

#	Program:	/corina/corina34_cracker 3.40 0067  02.08.2006

@<TRIPOS>MOLECULE
ASD01120158
  55   58    0    0    0
SMALL
NO_CHARGES


@<TRIPOS>ATOM
   1 C1            -0.0326     1.3700    -0.0271 C.ar    
   2 C2            -0.0196    -0.0281     0.0741 C.ar    
   3 C3            -1.1949    -0.7353     0.1993 C.ar    
   4 C4            -2.4143    -0.0477     0.2254 C.ar    
   5 C5            -2.4195     1.3656     0.1226 C.ar    
   6 C6            -1.2106     2.0611     0.0019 C.ar    
   7 N7            -3.5870    -0.6898     0.3451 N.ar    
   8 C8            -4.7137    -0.0184     0.3662 C.ar    
   9 N9            -4.7673     1.3008     0.2733 N.ar    
  10 C10           -3.6674     2.0325     0.1516 C.ar    
  11 C11           -5.1759     5.2824     0.5540 C.ar    
  12 C12           -4.9821     4.0391    -0.0342 C.ar    
  13 C13           -6.0269     3.4245    -0.7126 C.ar    
  14 C14           -7.2550     4.0515    -0.8002 C.ar    
  15 C15           -7.4441     5.2905    -0.2133 C.ar    
  16 C16           -6.4057     5.9045     0.4621 C.ar    
  17 N17           -3.7382     3.4079     0.0561 N.pl3   
  18 Br18          -8.6784     3.2162    -1.7233 Br      
  19 O19            1.1649    -0.6926     0.0481 O.3     
  20 O20            1.1408     2.0462    -0.1499 O.3     
  21 C21            1.1124    -2.1166     0.1553 C.3     
  22 C22            1.0620     3.4696    -0.2488 C.3     
  23 C23           -6.0050    -0.7834     0.5018 C.3     
  24 C24            2.4714     4.0505    -0.3794 C.3     
  25 C25            2.5323    -2.6844     0.1074 C.3     
  26 C26           -6.3477    -0.9357     1.9614 C.ar    
  27 C27           -7.1177     0.0222     2.5942 C.ar    
  28 C28           -7.4320    -0.1174     3.9331 C.ar    
  29 C29           -6.9768    -1.2153     4.6390 C.ar    
  30 C30           -6.2076    -2.1737     4.0060 C.ar    
  31 C31           -5.8969    -2.0362     2.6661 C.ar    
  32 H32           -1.1760    -1.8123     0.2763 H       
  33 H33           -1.2098     3.1382    -0.0768 H       
  34 H34           -4.3667     5.7607     1.0859 H       
  35 H35           -5.8793     2.4579    -1.1712 H       
  36 H36           -8.4048     5.7790    -0.2833 H       
  37 H37           -6.5564     6.8715     0.9187 H       
  38 H38           -2.9248     3.9363     0.0516 H       
  39 H39            0.6423    -2.3928     1.0992 H       
  40 H40            0.5308    -2.5221    -0.6726 H       
  41 H41            0.4745     3.7409    -1.1259 H       
  42 H42            0.5854     3.8702     0.6459 H       
  43 H43           -6.8035    -0.2409    -0.0042 H       
  44 H44           -5.8925    -1.7691     0.0503 H       
  45 H45            2.4113     5.1363    -0.4549 H       
  46 H46            3.0589     3.7793     0.4977 H       
  47 H47            2.9480     3.6500    -1.2741 H       
  48 H48            2.4922    -3.7706     0.1892 H       
  49 H49            3.0024    -2.4083    -0.8365 H       
  50 H50            3.1139    -2.2789     0.9353 H       
  51 H51           -7.4733     0.8800     2.0426 H       
  52 H52           -8.0330     0.6313     4.4276 H       
  53 H53           -7.2218    -1.3241     5.6852 H       
  54 H54           -5.8517    -3.0313     4.5577 H       
  55 H55           -5.2959    -2.7850     2.1715 H       
@<TRIPOS>BOND
   1    1    2 ar
   2    1   20 1
   3    1    6 ar
   4    2    3 ar
   5    2   19 1
   6    3    4 ar
   7    3   32 1
   8    4    5 ar
   9    4    7 ar
  10    5    6 ar
  11    5   10 ar
  12    6   33 1
  13    7    8 ar
  14    8    9 ar
  15    8   23 1
  16    9   10 ar
  17   10   17 1
  18   11   12 ar
  19   11   16 ar
  20   11   34 1
  21   12   13 ar
  22   12   17 1
  23   13   14 ar
  24   13   35 1
  25   14   15 ar
  26   14   18 1
  27   15   16 ar
  28   15   36 1
  29   16   37 1
  30   17   38 1
  31   19   21 1
  32   20   22 1
  33   21   25 1
  34   21   39 1
  35   21   40 1
  36   22   24 1
  37   22   41 1
  38   22   42 1
  39   23   26 1
  40   23   43 1
  41   23   44 1
  42   24   45 1
  43   24   46 1
  44   24   47 1
  45   25   48 1
  46   25   49 1
  47   25   50 1
  48   26   27 ar
  49   26   31 ar
  50   27   28 ar
  51   27   51 1
  52   28   29 ar
  53   28   52 1
  54   29   30 ar
  55   29   53 1
  56   30   31 ar
  57   30   54 1
  58   31   55 1

#	End of record

