#	Name: ASD04162010
#	Creating user name:	WinNT
#	Creation time:	15. 06. 2019 20:48

#	Modifying user name:	WinNT
#	Modification time:	15. 06. 2019 20:48

#	Program:	/corina/corina34_cracker 3.40 0067  02.08.2006

@<TRIPOS>MOLECULE
ASD04162010
  36   37    0    0    0
SMALL
NO_CHARGES


@<TRIPOS>ATOM
   1 C1             0.7126     1.3956    -0.1152 C.ar    
   2 C2             1.0877     0.0666    -0.1376 C.ar    
   3 C3             2.4267    -0.2785    -0.0288 C.ar    
   4 C4             3.3901     0.7107     0.1027 C.ar    
   5 C5             3.0168     2.0402     0.1253 C.ar    
   6 C6             1.6765     2.3865     0.0159 C.ar    
   7 O7             2.7952    -1.5874    -0.0505 O.3     
   8 C8             0.0418    -1.0090    -0.2799 C.3     
   9 C9             4.8446     0.3346     0.2213 C.3     
  10 N10            1.2974     3.7334     0.0383 N.am    
  11 S11            0.2163     4.3079    -1.0768 S.o2    
  12 O12           -0.9102     3.4432    -1.0261 O.2     
  13 O13            0.1296     5.7105    -0.8660 O.2     
  14 C14            0.9412     4.0877    -2.6676 C.ar    
  15 C15            0.6395     2.9648    -3.4152 C.ar    
  16 C16            1.2083     2.7920    -4.6632 C.ar    
  17 C17            2.0784     3.7424    -5.1638 C.ar    
  18 C18            2.3795     4.8657    -4.4166 C.ar    
  19 C19            1.8073     5.0406    -3.1704 C.ar    
  20 N20            2.6882     3.5569    -6.4997 N.pl3   
  21 O21            2.4233     2.5669    -7.1580 O.2     
  22 O22            3.4549     4.3943    -6.9408 O.2     
  23 H23           -0.3297     1.6642    -0.2040 H       
  24 H24            3.7670     2.8102     0.2284 H       
  25 H25            2.9828    -1.9286    -0.9357 H       
  26 H26           -0.1163    -1.2246    -1.3366 H       
  27 H27            0.3782    -1.9125     0.2288 H       
  28 H28           -0.8929    -0.6681     0.1652 H       
  29 H29            5.2899     0.2875    -0.7725 H       
  30 H30            5.3659     1.0830     0.8180 H       
  31 H31            4.9299    -0.6389     0.7041 H       
  32 H32            1.6678     4.3304     0.7070 H       
  33 H33           -0.0403     2.2223    -3.0242 H       
  34 H34            0.9731     1.9144    -5.2471 H       
  35 H35            3.0596     5.6080    -4.8075 H       
  36 H36            2.0425     5.9182    -2.5866 H       
@<TRIPOS>BOND
   1    1    2 ar
   2    1    6 ar
   3    1   23 1
   4    2    3 ar
   5    2    8 1
   6    3    4 ar
   7    3    7 1
   8    4    5 ar
   9    4    9 1
  10    5    6 ar
  11    5   24 1
  12    6   10 1
  13    7   25 1
  14    8   26 1
  15    8   27 1
  16    8   28 1
  17    9   29 1
  18    9   30 1
  19    9   31 1
  20   10   11 am
  21   10   32 1
  22   11   12 2
  23   11   13 2
  24   11   14 1
  25   14   15 ar
  26   14   19 ar
  27   15   16 ar
  28   15   33 1
  29   16   17 ar
  30   16   34 1
  31   17   18 ar
  32   17   20 1
  33   18   19 ar
  34   18   35 1
  35   19   36 1
  36   20   21 2
  37   20   22 2

#	End of record

