#	Name: ASD01915893
#	Creating user name:	WinNT
#	Creation time:	15. 06. 2019 20:06

#	Modifying user name:	WinNT
#	Modification time:	15. 06. 2019 20:06

#	Program:	/corina/corina34_cracker 3.40 0067  02.08.2006

@<TRIPOS>MOLECULE
ASD01915893
  31   33    0    0    0
SMALL
NO_CHARGES


@<TRIPOS>ATOM
   1 C1             0.0140     1.2662    -0.7521 C.2     
   2 C2             0.0156    -0.0537    -0.3399 C.2     
   3 C3            -1.2989    -0.8070    -0.2248 C.3     
   4 C4            -2.4038     0.1861     0.1294 C.3     
   5 N5            -2.3822     1.3774    -0.7092 N.am    
   6 C6            -1.2250     1.9689    -1.0919 C.2     
   7 O7            -1.2159     3.0335    -1.6822 O.2     
   8 S8             1.6653     1.8437    -0.7795 S.3     
   9 C9             2.2183     0.3130    -0.2517 C.2     
  10 N10            1.2181    -0.5032    -0.0894 N.2     
  11 H11           -3.2237     1.7582    -1.0055 H       
  12 O12            3.5150    -0.0045    -0.0338 O.3     
  13 C13            4.4408     0.9843    -0.1418 C.ar    
  14 C14            4.5784     1.9197     0.8721 C.ar    
  15 C15            5.5243     2.9271     0.7591 C.ar    
  16 C16            6.3307     2.9968    -0.3679 C.ar    
  17 C17            6.1917     2.0632    -1.3774 C.ar    
  18 C18            5.2536     1.0553    -1.2649 C.ar    
  19 O19            5.6612     3.8458     1.7511 O.3     
  20 C20            6.6557     4.8554     1.5676 C.3     
  21 H21           -1.5298    -1.2868    -1.1759 H       
  22 H22           -1.2207    -1.5613     0.5581 H       
  23 H23           -3.3694    -0.3067     0.0152 H       
  24 H24           -2.2859     0.4868     1.1704 H       
  25 H25            3.9496     1.8640     1.7484 H       
  26 H26            7.0674     3.7816    -0.4565 H       
  27 H27            6.8204     2.1192    -2.2538 H       
  28 H28            5.1471     0.3267    -2.0549 H       
  29 H29            6.6604     5.5218     2.4302 H       
  30 H30            7.6345     4.3869     1.4652 H       
  31 H31            6.4308     5.4276     0.6676 H       
@<TRIPOS>BOND
   1    1    2 2
   2    1    8 1
   3    1    6 1
   4    2    3 1
   5    2   10 1
   6    3    4 1
   7    3   21 1
   8    3   22 1
   9    4    5 1
  10    4   23 1
  11    4   24 1
  12    5    6 am
  13    5   11 1
  14    6    7 2
  15    8    9 1
  16    9   10 2
  17    9   12 1
  18   12   13 1
  19   13   14 ar
  20   13   18 ar
  21   14   15 ar
  22   14   25 1
  23   15   16 ar
  24   15   19 1
  25   16   17 ar
  26   16   26 1
  27   17   18 ar
  28   17   27 1
  29   18   28 1
  30   19   20 1
  31   20   29 1
  32   20   30 1
  33   20   31 1

#	End of record

