#	Name: ASD04590187
#	Creating user name:	WinNT
#	Creation time:	15. 06. 2019 20:50

#	Modifying user name:	WinNT
#	Modification time:	15. 06. 2019 20:50

#	Program:	/corina/corina34_cracker 3.40 0067  02.08.2006

@<TRIPOS>MOLECULE
ASD04590187
  49   51    0    0    0
SMALL
NO_CHARGES


@<TRIPOS>ATOM
   1 N1            -0.0153     1.2803     0.0091 N.pl3   
   2 N2             0.0021    -0.0041     0.0020 N.2     
   3 C3             1.2457    -0.4438    -0.0122 C.2     
   4 C4             2.0903     0.6961    -0.0142 C.2     
   5 C5             1.2526     1.7666    -0.0004 C.2     
   6 C6             1.6768    -1.8544    -0.0239 C.2     
   7 N7             0.7576    -2.8400    -0.0209 N.am    
   8 N8             3.4941     0.7147    -0.0275 N.am    
   9 O9             2.8615    -2.1280    -0.0362 O.2     
  10 C10            4.1525     1.8907    -0.0274 C.2     
  11 N11            5.5001     1.9085    -0.0402 N.am    
  12 O12            3.5307     2.9356    -0.0159 O.2     
  13 C13            1.1857    -4.2410    -0.0325 C.3     
  14 C14            0.0790    -5.1076    -0.6369 C.3     
  15 C15            0.5262    -6.5707    -0.6490 C.3     
  16 C16            0.8086    -7.0296     0.7830 C.3     
  17 C17            1.9153    -6.1630     1.3873 C.3     
  18 C18            1.4681    -4.6999     1.3994 C.3     
  19 O19           -0.3790    -6.9009     1.5674 O.3     
  20 C20            6.2158     3.1868    -0.0402 C.3     
  21 C21            7.7008     2.9311    -0.0557 C.ar    
  22 C22            8.3705     2.8202    -1.2599 C.ar    
  23 C23            8.3943     2.8130     1.1342 C.ar    
  24 C24            9.7565     2.5784     1.1200 C.ar    
  25 C25           10.4252     2.4614    -0.0842 C.ar    
  26 C26            9.7327     2.5856    -1.2742 C.ar    
  27 H27           -0.8184     1.8243     0.0160 H       
  28 H28            1.5409     2.8074     0.0024 H       
  29 H29           -0.1875    -2.6218    -0.0111 H       
  30 H30            3.9901    -0.1188    -0.0367 H       
  31 H31            5.9961     1.0750    -0.0494 H       
  32 H32            2.0916    -4.3392    -0.6308 H       
  33 H33           -0.8268    -5.0094    -0.0386 H       
  34 H34           -0.1222    -4.7807    -1.6570 H       
  35 H35           -0.2623    -7.1880    -1.0795 H       
  36 H36            1.4320    -6.6688    -1.2473 H       
  37 H37            1.1272    -8.0719     0.7744 H       
  38 H38            2.1165    -6.4899     2.4075 H       
  39 H39            2.8211    -6.2612     0.7890 H       
  40 H40            2.2566    -4.0826     1.8300 H       
  41 H41            0.5623    -4.6018     1.9977 H       
  42 H42           -0.2733    -7.1746     2.4888 H       
  43 H43            5.9364     3.7596    -0.9245 H       
  44 H44            5.9534     3.7501     0.8554 H       
  45 H45            7.8294     2.9166    -2.1896 H       
  46 H46            7.8719     2.9043     2.0751 H       
  47 H47           10.2985     2.4868     2.0497 H       
  48 H48           11.4895     2.2785    -0.0954 H       
  49 H49           10.2551     2.4942    -2.2150 H       
@<TRIPOS>BOND
   1    1    2 1
   2    1    5 1
   3    1   27 1
   4    2    3 2
   5    3    4 1
   6    3    6 1
   7    4    5 2
   8    4    8 1
   9    5   28 1
  10    6    7 am
  11    6    9 2
  12    7   13 1
  13    7   29 1
  14    8   10 am
  15    8   30 1
  16   10   11 am
  17   10   12 2
  18   11   20 1
  19   11   31 1
  20   13   14 1
  21   13   18 1
  22   13   32 1
  23   14   15 1
  24   14   33 1
  25   14   34 1
  26   15   16 1
  27   15   35 1
  28   15   36 1
  29   16   17 1
  30   16   19 1
  31   16   37 1
  32   17   18 1
  33   17   38 1
  34   17   39 1
  35   18   40 1
  36   18   41 1
  37   19   42 1
  38   20   21 1
  39   20   43 1
  40   20   44 1
  41   21   22 ar
  42   21   23 ar
  43   22   26 ar
  44   22   45 1
  45   23   24 ar
  46   23   46 1
  47   24   25 ar
  48   24   47 1
  49   25   26 ar
  50   25   48 1
  51   26   49 1

#	End of record

