#	Name: ASD01912064
#	Creating user name:	WinNT
#	Creation time:	15. 06. 2019 19:58

#	Modifying user name:	WinNT
#	Modification time:	15. 06. 2019 19:58

#	Program:	/corina/corina34_cracker 3.40 0067  02.08.2006

@<TRIPOS>MOLECULE
ASD01912064
  31   31    0    0    0
SMALL
NO_CHARGES


@<TRIPOS>ATOM
   1 C1            -0.0167     1.3828     0.0096 C.ar    
   2 C2             0.0021    -0.0041     0.0020 C.ar    
   3 C3             1.2094    -0.6875    -0.0132 C.ar    
   4 C4             2.3980     0.0081    -0.0203 C.ar    
   5 C5             2.3861     1.4077    -0.0127 C.ar    
   6 C6             1.1651     2.0908     0.0022 C.ar    
   7 C7             3.6511     2.1568    -0.0197 C.2     
   8 C8             3.6345     3.6636    -0.0115 C.3     
   9 O9             4.7079     1.5620    -0.0322 O.2     
  10 C10            5.0497     4.1816    -0.0211 C.2     
  11 C11            5.3087     5.6662    -0.0154 C.3     
  12 O12            5.9761     3.4071    -0.0334 O.2     
  13 F13           -1.1604    -0.6925     0.0098 F       
  14 C14            6.8174     5.9207    -0.0272 C.3     
  15 C15            1.2202    -2.1945    -0.0214 C.3     
  16 C16            7.0804     7.4279    -0.0214 C.3     
  17 H17           -0.9599     1.9088     0.0170 H       
  18 H18            3.3371    -0.5251    -0.0314 H       
  19 H19            1.1491     3.1706     0.0078 H       
  20 H20            3.1089     4.0261    -0.8949 H       
  21 H21            3.1245     4.0165     0.8849 H       
  22 H22            4.8572     6.1172    -0.8990 H       
  23 H23            4.8728     6.1076     0.8808 H       
  24 H24            7.2689     5.4697     0.8564 H       
  25 H25            7.2533     5.4792    -0.9235 H       
  26 H26            1.2130    -2.5523    -1.0509 H       
  27 H27            2.1176    -2.5541     0.4820 H       
  28 H28            0.3377    -2.5670     0.4989 H       
  29 H29            6.6289     7.8789    -0.9051 H       
  30 H30            6.6445     7.8693     0.8748 H       
  31 H31            8.1551     7.6092    -0.0299 H       
@<TRIPOS>BOND
   1    1    2 ar
   2    1    6 ar
   3    1   17 1
   4    2    3 ar
   5    2   13 1
   6    3    4 ar
   7    3   15 1
   8    4    5 ar
   9    4   18 1
  10    5    6 ar
  11    5    7 1
  12    6   19 1
  13    7    8 1
  14    7    9 2
  15    8   10 1
  16    8   20 1
  17    8   21 1
  18   10   11 1
  19   10   12 2
  20   11   14 1
  21   11   22 1
  22   11   23 1
  23   14   16 1
  24   14   24 1
  25   14   25 1
  26   15   26 1
  27   15   27 1
  28   15   28 1
  29   16   29 1
  30   16   30 1
  31   16   31 1

#	End of record

