#	Name: ASD01914294
#	Creating user name:	WinNT
#	Creation time:	15. 06. 2019 20:03

#	Modifying user name:	WinNT
#	Modification time:	15. 06. 2019 20:03

#	Program:	/corina/corina34_cracker 3.40 0067  02.08.2006

@<TRIPOS>MOLECULE
ASD01914294
  28   29    0    0    0
SMALL
NO_CHARGES


@<TRIPOS>ATOM
   1 N1            -0.0169     1.3965     0.0097 N.2     
   2 N2             0.0021    -0.0041     0.0020 N.pl3   
   3 C3             1.2185     1.8289     0.0002 C.2     
   4 C4             2.0750     0.7279    -0.0138 C.2     
   5 C5             1.3057    -0.4013    -0.0126 C.2     
   6 C6             1.7970    -1.7970    -0.0247 C.ar    
   7 C7             1.6443     3.2745     0.0035 C.3     
   8 C8             3.1676    -2.0564    -0.0392 C.ar    
   9 C9             0.9832     4.0036    -1.1679 C.3     
  10 C10            3.6205    -3.3594    -0.0501 C.ar    
  11 C11            2.7167    -4.4095    -0.0471 C.ar    
  12 C12            1.3540    -4.1571    -0.0332 C.ar    
  13 C13            0.8910    -2.8581    -0.0160 C.ar    
  14 C14            0.3765    -5.3041    -0.0305 C.3     
  15 F15            3.1652    -5.6838    -0.0582 F       
  16 H16           -0.7734    -0.5867     0.0068 H       
  17 H17            3.1544     0.7620    -0.0243 H       
  18 H18            1.3396     3.7409     0.9403 H       
  19 H19            2.7281     3.3342    -0.0964 H       
  20 H20            3.8729    -1.2385    -0.0423 H       
  21 H21            1.2912     5.0491    -1.1656 H       
  22 H22            1.2879     3.5371    -2.1048 H       
  23 H23           -0.1006     3.9438    -1.0680 H       
  24 H24            4.6814    -3.5613    -0.0613 H       
  25 H25           -0.1711    -2.6625    -0.0048 H       
  26 H26            0.1503    -5.5863     0.9978 H       
  27 H27           -0.5412    -5.0006    -0.5342 H       
  28 H28            0.8135    -6.1551    -0.5530 H       
@<TRIPOS>BOND
   1    1    2 1
   2    1    3 2
   3    2    5 1
   4    2   16 1
   5    3    4 1
   6    3    7 1
   7    4    5 2
   8    4   17 1
   9    5    6 1
  10    6    8 ar
  11    6   13 ar
  12    7    9 1
  13    7   18 1
  14    7   19 1
  15    8   10 ar
  16    8   20 1
  17    9   21 1
  18    9   22 1
  19    9   23 1
  20   10   11 ar
  21   10   24 1
  22   11   12 ar
  23   11   15 1
  24   12   13 ar
  25   12   14 1
  26   13   25 1
  27   14   26 1
  28   14   27 1
  29   14   28 1

#	End of record

