#	Name: ASD01208416
#	Creating user name:	WinNT
#	Creation time:	15. 06. 2019 19:09

#	Modifying user name:	WinNT
#	Modification time:	15. 06. 2019 19:09

#	Program:	/corina/corina34_cracker 3.40 0067  02.08.2006

@<TRIPOS>MOLECULE
ASD01208416
  63   65    0    0    0
SMALL
NO_CHARGES


@<TRIPOS>ATOM
   1 O1             0.3979     1.6116     1.9410 O.3     
   2 B2             0.2367     0.3678     1.2442 Du      
   3 O3             1.2506     0.3799     0.2291 O.3     
   4 C4             2.4043     0.9614     0.8721 C.3     
   5 C5             1.8262     1.7965     2.0327 C.3     
   6 C6             2.1850     3.2734     1.8571 C.3     
   7 C7             2.3460     1.2762     3.3744 C.3     
   8 C8             3.3238    -0.1362     1.4114 C.3     
   9 C9             3.1627     1.8610    -0.1058 C.3     
  10 C10           -0.8177    -0.7596     1.5302 C.ar    
  11 C11           -0.8348    -1.9139     0.7496 C.ar    
  12 C12           -1.7660    -2.9071     1.0047 C.ar    
  13 C13           -2.6813    -2.7536     2.0361 C.ar    
  14 C14           -2.6673    -1.6054     2.8149 C.ar    
  15 C15           -1.7345    -0.6107     2.5684 C.ar    
  16 O16           -3.5656    -1.4585     3.8239 O.3     
  17 C17           -4.6348    -0.6468     3.6131 C.ar    
  18 C18           -5.5613    -0.4407     4.6252 C.ar    
  19 C19           -6.6470     0.3853     4.4084 C.ar    
  20 C20           -6.8112     1.0063     3.1840 C.ar    
  21 C21           -5.8894     0.8027     2.1737 C.ar    
  22 C22           -4.7988    -0.0179     2.3871 C.ar    
  23 S23           -8.1978     2.0585     2.9104 S.o2    
  24 O24           -8.4030     2.0095     1.5052 O.2     
  25 O25           -9.1854     1.5783     3.8122 O.2     
  26 C26           -7.6234     3.7042     3.4129 C.3     
  27 O27           -1.7834    -4.0329     0.2435 O.3     
  28 C28           -0.8730    -4.0863    -0.8567 C.3     
  29 C29           -1.4042    -5.0591    -1.9114 C.3     
  30 C30            0.4943    -4.5646    -0.3644 C.3     
  31 O31           -1.4237    -6.3823    -1.3722 O.3     
  32 C32           -1.9061    -7.3735    -2.2815 C.3     
  33 H33            1.7212     3.8570     2.6524 H       
  34 H34            3.2675     3.3923     1.9032 H       
  35 H35            1.8218     3.6231     0.8907 H       
  36 H36            2.0962     0.2201     3.4759 H       
  37 H37            3.4282     1.3994     3.4172 H       
  38 H38            1.8839     1.8385     4.1858 H       
  39 H39            3.6776    -0.7524     0.5848 H       
  40 H40            4.1760     0.3191     1.9159 H       
  41 H41            2.7728    -0.7572     2.1177 H       
  42 H42            2.4984     2.6458    -0.4675 H       
  43 H43            4.0153     2.3121     0.4019 H       
  44 H44            3.5148     1.2661    -0.9486 H       
  45 H45           -0.1229    -2.0338    -0.0536 H       
  46 H46           -3.4064    -3.5295     2.2330 H       
  47 H47           -1.7212     0.2809     3.1776 H       
  48 H48           -5.4339    -0.9261     5.5816 H       
  49 H49           -7.3684     0.5460     5.1959 H       
  50 H50           -6.0201     1.2887     1.2181 H       
  51 H51           -4.0770    -0.1733     1.5990 H       
  52 H52           -6.7674     3.9922     2.8027 H       
  53 H53           -8.4273     4.4273     3.2754 H       
  54 H54           -7.3303     3.6819     4.4625 H       
  55 H55           -0.7744    -3.0933    -1.2952 H       
  56 H56           -2.4151    -4.7684    -2.1974 H       
  57 H57           -0.7570    -5.0335    -2.7881 H       
  58 H58            1.1887    -4.6054    -1.2035 H       
  59 H59            0.8728    -3.8716     0.3870 H       
  60 H60            0.3956    -5.5577     0.0741 H       
  61 H61           -1.2692    -7.3959    -3.1659 H       
  62 H62           -1.8896    -8.3498    -1.7971 H       
  63 H63           -2.9273    -7.1308    -2.5753 H       
@<TRIPOS>BOND
   1    1    2 1
   2    1    5 1
   3    2    3 1
   4    2   10 1
   5    3    4 1
   6    4    5 1
   7    4    8 1
   8    4    9 1
   9    5    6 1
  10    5    7 1
  11    6   33 1
  12    6   34 1
  13    6   35 1
  14    7   36 1
  15    7   37 1
  16    7   38 1
  17    8   39 1
  18    8   40 1
  19    8   41 1
  20    9   42 1
  21    9   43 1
  22    9   44 1
  23   10   11 ar
  24   10   15 ar
  25   11   12 ar
  26   11   45 1
  27   12   13 ar
  28   12   27 1
  29   13   14 ar
  30   13   46 1
  31   14   15 ar
  32   14   16 1
  33   15   47 1
  34   16   17 1
  35   17   18 ar
  36   17   22 ar
  37   18   19 ar
  38   18   48 1
  39   19   20 ar
  40   19   49 1
  41   20   21 ar
  42   20   23 1
  43   21   22 ar
  44   21   50 1
  45   22   51 1
  46   23   24 2
  47   23   25 2
  48   23   26 1
  49   26   52 1
  50   26   53 1
  51   26   54 1
  52   27   28 1
  53   28   29 1
  54   28   30 1
  55   28   55 1
  56   29   31 1
  57   29   56 1
  58   29   57 1
  59   30   58 1
  60   30   59 1
  61   30   60 1
  62   31   32 1
  63   32   61 1
  64   32   62 1
  65   32   63 1

#	End of record

