#	Name: ASD05842021
#	Creating user name:	WinNT
#	Creation time:	15. 06. 2019 21:03

#	Modifying user name:	WinNT
#	Modification time:	15. 06. 2019 21:03

#	Program:	/corina/corina34_cracker 3.40 0067  02.08.2006

@<TRIPOS>MOLECULE
ASD05842021
  43   44    0    0    0
SMALL
NO_CHARGES


@<TRIPOS>ATOM
   1 C1            -0.0947     1.4121     0.0399 C.ar    
   2 C2            -0.0888     0.0301     0.0691 C.ar    
   3 C3            -1.2826    -0.6655     0.1114 C.ar    
   4 C4            -2.4824     0.0210     0.1248 C.ar    
   5 C5            -2.4883     1.4030     0.0965 C.ar    
   6 C6            -1.2944     2.0987     0.0586 C.ar    
   7 C7             1.2068     2.1704    -0.0062 C.3     
   8 N8             1.5978     2.3873    -1.4055 N.3     
   9 C9             2.7281     3.3211    -1.4976 C.3     
  10 C10            2.2308     4.7486    -1.2615 C.3     
  11 C11            3.4054     5.6924    -1.2384 C.ar    
  12 C12            3.8397     6.2843    -2.4097 C.ar    
  13 C13            4.9172     7.1500    -2.3884 C.ar    
  14 C14            5.5602     7.4241    -1.1958 C.ar    
  15 C15            5.1253     6.8329    -0.0244 C.ar    
  16 C16            4.0451     5.9706    -0.0449 C.ar    
  17 C17            2.1528     0.1693    -5.7372 C.1     
  18 C18            2.1309    -0.0287    -4.2788 C.3     
  19 C19            1.9342     1.3201    -3.5838 C.3     
  20 C20            1.9114     1.1142    -2.0679 C.3     
  21 N21            2.1697     0.3222    -6.8628 N.1     
  22 H22            0.8486    -0.5063     0.0586 H       
  23 H23           -1.2780    -1.7453     0.1335 H       
  24 H24           -3.4152    -0.5225     0.1571 H       
  25 H25           -3.4257     1.9393     0.1066 H       
  26 H26           -1.2990     3.1784     0.0365 H       
  27 H27            1.0842     3.1330     0.4902 H       
  28 H28            1.9806     1.5953     0.5023 H       
  29 H29            3.4723     3.0662    -0.7431 H       
  30 H30            3.1768     3.2518    -2.4885 H       
  31 H31            1.5512     5.0341    -2.0645 H       
  32 H32            1.7065     4.7976    -0.3072 H       
  33 H33            3.3374     6.0701    -3.3415 H       
  34 H34            5.2570     7.6118    -3.3037 H       
  35 H35            6.4025     8.0999    -1.1793 H       
  36 H36            5.6279     7.0468     0.9074 H       
  37 H37            3.7053     5.5088     0.8703 H       
  38 H38            1.3107    -0.6964    -4.0151 H       
  39 H39            3.0751    -0.4686    -3.9577 H       
  40 H40            2.7544     1.9878    -3.8476 H       
  41 H41            0.9900     1.7599    -3.9050 H       
  42 H42            2.8875     0.7619    -1.7344 H       
  43 H43            1.1519     0.3752    -1.8130 H       
@<TRIPOS>BOND
   1    1    2 ar
   2    1    7 1
   3    1    6 ar
   4    2    3 ar
   5    2   22 1
   6    3    4 ar
   7    3   23 1
   8    4    5 ar
   9    4   24 1
  10    5    6 ar
  11    5   25 1
  12    6   26 1
  13    7    8 1
  14    7   27 1
  15    7   28 1
  16    8    9 1
  17    8   20 1
  18    9   10 1
  19    9   29 1
  20    9   30 1
  21   10   11 1
  22   10   31 1
  23   10   32 1
  24   11   12 ar
  25   11   16 ar
  26   12   13 ar
  27   12   33 1
  28   13   14 ar
  29   13   34 1
  30   14   15 ar
  31   14   35 1
  32   15   16 ar
  33   15   36 1
  34   16   37 1
  35   17   18 1
  36   17   21 3
  37   18   19 1
  38   18   38 1
  39   18   39 1
  40   19   20 1
  41   19   40 1
  42   19   41 1
  43   20   42 1
  44   20   43 1

#	End of record

