#	Name: ASD05430020
#	Creating user name:	WinNT
#	Creation time:	15. 06. 2019 20:59

#	Modifying user name:	WinNT
#	Modification time:	15. 06. 2019 20:59

#	Program:	/corina/corina34_cracker 3.40 0067  02.08.2006

@<TRIPOS>MOLECULE
ASD05430020
  60   66    0    0    0
SMALL
NO_CHARGES


@<TRIPOS>ATOM
   1 C1             0.0679     1.1514     0.4365 C.ar    
   2 C2             0.0200    -0.0129    -0.3266 C.ar    
   3 C3             1.1585    -0.4650    -0.9798 C.ar    
   4 C4             2.3471     0.2298    -0.8823 C.ar    
   5 C5             2.4188     1.3993    -0.1237 C.ar    
   6 C6             1.2665     1.8665     0.5440 C.ar    
   7 C7             4.8736    -0.0387     0.2064 C.3     
   8 C8             4.8503     1.4670     0.0681 C.2     
   9 C9             3.6840     2.1374    -0.0202 C.2     
  10 C10            6.2060    -0.4919     0.7935 C.3     
  11 C11            6.8811     0.5356     1.6998 C.3     
  12 N12            7.1137     1.7619     0.9366 N.pl3   
  13 C13            6.1382     2.1796     0.0333 C.2     
  14 N14           -1.1787    -0.7290    -0.4347 N.pl3   
  15 C15           -1.9803    -1.1214     0.5896 C.2     
  16 C16           -1.7680    -1.1615    -1.5946 C.2     
  17 C17           -2.8983    -1.8031    -1.2422 C.2     
  18 N18           -3.0030    -1.7636     0.0945 N.2     
  19 C19           -3.8785    -2.4498    -2.1866 C.3     
  20 N20            1.0108     2.9367     1.3374 N.2     
  21 C21           -0.2377     2.9019     1.6996 C.2     
  22 O22           -0.8448     1.8310     1.1659 O.3     
  23 C23            6.1532    -1.9001     1.4085 C.3     
  24 O24            7.4143    -2.1129     0.7417 O.3     
  25 C25            7.1582    -1.0978    -0.2505 C.3     
  26 C26            8.3231     2.5669     1.1018 C.3     
  27 C27            8.7249     3.1207    -0.2697 C.3     
  28 O28            7.6211     3.7921    -0.8681 O.3     
  29 N29            6.3745     3.1384    -0.8023 N.2     
  30 C30            8.0491     3.7064     2.0491 C.ar    
  31 C31            9.0022     4.0749     2.9802 C.ar    
  32 C32            8.7522     5.1201     3.8492 C.ar    
  33 C33            7.5466     5.7981     3.7870 C.ar    
  34 C34            6.5928     5.4281     2.8540 C.ar    
  35 C35            6.8471     4.3861     1.9826 C.ar    
  36 F36            7.3010     6.8197     4.6362 F       
  37 H37            1.1138    -1.3688    -1.5694 H       
  38 H38            3.2257    -0.1332    -1.3950 H       
  39 H39            4.0633    -0.3537     0.8638 H       
  40 H40            4.7377    -0.4937    -0.7748 H       
  41 H41            3.6802     3.2174    -0.0149 H       
  42 H42            6.2350     0.7522     2.5505 H       
  43 H43            7.8331     0.1401     2.0540 H       
  44 H44           -1.8010    -0.9338     1.6380 H       
  45 H45           -1.3972    -1.0153    -2.5984 H       
  46 H46           -3.5935    -3.4891    -2.3506 H       
  47 H47           -4.8786    -2.4112    -1.7548 H       
  48 H48           -3.8724    -1.9171    -3.1375 H       
  49 H49           -0.7175     3.6317     2.3350 H       
  50 H50            6.2222    -1.9094     2.4963 H       
  51 H51            5.3416    -2.5187     1.0255 H       
  52 H52            6.6553    -1.4700    -1.1430 H       
  53 H53            8.0223    -0.4724    -0.4751 H       
  54 H54            9.1268     1.9454     1.4967 H       
  55 H55            9.5515     3.8208    -0.1488 H       
  56 H56            9.0403     2.2992    -0.9130 H       
  57 H57            9.9424     3.5457     3.0288 H       
  58 H58            9.4968     5.4076     4.5767 H       
  59 H59            5.6521     5.9563     2.8046 H       
  60 H60            6.1033     4.0973     1.2548 H       
@<TRIPOS>BOND
   1    1    2 ar
   2    1    6 ar
   3    1   22 1
   4    2    3 ar
   5    2   14 1
   6    3    4 ar
   7    3   37 1
   8    4    5 ar
   9    4   38 1
  10    5    6 ar
  11    5    9 1
  12    6   20 1
  13    7    8 1
  14    7   10 1
  15    7   39 1
  16    7   40 1
  17    8    9 2
  18    8   13 1
  19    9   41 1
  20   10   11 1
  21   10   23 1
  22   10   25 1
  23   11   12 1
  24   11   42 1
  25   11   43 1
  26   12   13 1
  27   12   26 1
  28   13   29 2
  29   14   15 1
  30   14   16 1
  31   15   18 2
  32   15   44 1
  33   16   17 2
  34   16   45 1
  35   17   18 1
  36   17   19 1
  37   19   46 1
  38   19   47 1
  39   19   48 1
  40   20   21 2
  41   21   22 1
  42   21   49 1
  43   23   24 1
  44   23   50 1
  45   23   51 1
  46   24   25 1
  47   25   52 1
  48   25   53 1
  49   26   27 1
  50   26   30 1
  51   26   54 1
  52   27   28 1
  53   27   55 1
  54   27   56 1
  55   28   29 1
  56   30   31 ar
  57   30   35 ar
  58   31   32 ar
  59   31   57 1
  60   32   33 ar
  61   32   58 1
  62   33   34 ar
  63   33   36 1
  64   34   35 ar
  65   34   59 1
  66   35   60 1

#	End of record

