#	Name: ASD02490001
#	Creating user name:	WinNT
#	Creation time:	15. 06. 2019 20:22

#	Modifying user name:	WinNT
#	Modification time:	15. 06. 2019 20:22

#	Program:	/corina/corina34_cracker 3.40 0067  02.08.2006

@<TRIPOS>MOLECULE
ASD02490001
  47   48    0    0    0
SMALL
NO_CHARGES


@<TRIPOS>ATOM
   1 C1            -0.7525     0.5157    -1.8033 C.2     
   2 N2            -0.7156    -0.5853    -1.0269 N.am    
   3 O3            -1.8041     1.0897    -1.9919 O.2     
   4 C4             0.5308    -1.3480    -0.8694 C.3     
   5 N5            -0.3546    -1.9199     1.3310 N.am    
   6 O6             1.2470    -0.0503    -2.9993 O.3     
   7 C7            -1.9194    -1.0412    -0.3178 C.3     
   8 N8             5.5290    -6.4444     2.8955 N.1     
   9 O9            -1.3261    -3.4038     2.6674 O.2     
  10 C10            0.5139     1.0373    -2.4319 C.3     
  11 C11            0.8506    -1.4608     0.6263 C.3     
  12 C12            0.3553    -2.7469    -1.4639 C.3     
  13 C13           -1.5943    -1.1546     1.1768 C.3     
  14 C14            0.1616     2.0428    -3.5300 C.3     
  15 C15            1.3671     1.7257    -1.3647 C.3     
  16 C16           -2.7372    -1.8793     1.8906 C.3     
  17 C17           -0.3176    -3.0209     2.1074 C.2     
  18 C18            0.9503    -3.7634     2.2780 C.ar    
  19 C19            0.9285    -5.1447     2.4802 C.ar    
  20 C20            2.1690    -3.0835     2.2312 C.ar    
  21 C21            2.1089    -5.8362     2.6396 C.ar    
  22 C22            3.3497    -3.7747     2.3896 C.ar    
  23 C23            3.3279    -5.1556     2.5984 C.ar    
  24 C24            4.5553    -5.8743     2.7641 C.1     
  25 F25           -0.5560     3.1075    -2.9746 F       
  26 F26            1.3373     2.5269    -4.1136 F       
  27 F27           -0.6185     1.4133    -4.5059 F       
  28 H28            1.3433    -0.8304    -1.3793 H       
  29 H29            0.7660    -0.5335    -3.6850 H       
  30 H30           -2.7245    -0.3211    -0.4634 H       
  31 H31           -2.2228    -2.0155    -0.7011 H       
  32 H32            1.6571    -2.1789     0.7748 H       
  33 H33            1.1502    -0.4858     1.0109 H       
  34 H34            0.1131    -2.6637    -2.5234 H       
  35 H35            1.2808    -3.3105    -1.3459 H       
  36 H36           -0.4530    -3.2630    -0.9459 H       
  37 H37           -1.4656    -0.1599     1.6034 H       
  38 H38            1.6181     1.0094    -0.5824 H       
  39 H39            2.2831     2.1029    -1.8194 H       
  40 H40            0.8079     2.5553    -0.9319 H       
  41 H41           -2.5379    -1.9057     2.9619 H       
  42 H42           -3.6728    -1.3507     1.7080 H       
  43 H43           -2.8152    -2.8979     1.5104 H       
  44 H44           -0.0141    -5.6710     2.5120 H       
  45 H45            2.1858    -2.0157     2.0704 H       
  46 H46            2.0919    -6.9046     2.7966 H       
  47 H47            4.2923    -3.2489     2.3526 H       
@<TRIPOS>BOND
   1    1    2 am
   2    1    3 2
   3    1   10 1
   4    2    4 1
   5    2    7 1
   6    4   11 1
   7    4   12 1
   8    4   28 1
   9    5   11 1
  10    5   13 1
  11    5   17 am
  12    6   10 1
  13    6   29 1
  14    7   13 1
  15    7   30 1
  16    7   31 1
  17    8   24 3
  18    9   17 2
  19   10   14 1
  20   10   15 1
  21   11   32 1
  22   11   33 1
  23   12   34 1
  24   12   35 1
  25   12   36 1
  26   13   16 1
  27   13   37 1
  28   14   25 1
  29   14   26 1
  30   14   27 1
  31   15   38 1
  32   15   39 1
  33   15   40 1
  34   16   41 1
  35   16   42 1
  36   16   43 1
  37   17   18 1
  38   18   19 ar
  39   18   20 ar
  40   19   21 ar
  41   19   44 1
  42   20   22 ar
  43   20   45 1
  44   21   23 ar
  45   21   46 1
  46   22   23 ar
  47   22   47 1
  48   23   24 1

#	End of record

