#	Name: ASD03082291
#	Creating user name:	WinNT
#	Creation time:	15. 06. 2019 20:27

#	Modifying user name:	WinNT
#	Modification time:	15. 06. 2019 20:27

#	Program:	/corina/corina34_cracker 3.40 0067  02.08.2006

@<TRIPOS>MOLECULE
ASD03082291
  39   42    0    0    0
SMALL
NO_CHARGES


@<TRIPOS>ATOM
   1 N1             0.2025     1.7671    -0.2192 N.pl3   
   2 N2             0.0322     0.3742    -0.2712 N.2     
   3 C3             1.2004    -0.1643    -0.0053 C.2     
   4 N4             2.0883     0.8073     0.2092 N.2     
   5 C5             1.5022     1.9810     0.0839 C.2     
   6 N6             1.4691    -1.5336     0.0452 N.pl3   
   7 C7             0.4261    -2.4552    -0.0774 C.ar    
   8 C8             0.6807    -3.7343    -0.5554 C.ar    
   9 C9            -0.3534    -4.6452    -0.6756 C.ar    
  10 C10           -1.6417    -4.2826    -0.3201 C.ar    
  11 C11           -1.8980    -3.0079     0.1563 C.ar    
  12 C12           -0.8660    -2.0956     0.2839 C.ar    
  13 C13            2.1527     3.3006     0.2460 C.ar    
  14 C14           -0.8235     2.7863    -0.4534 C.3     
  15 C15            1.3946     4.4502     0.4917 C.ar    
  16 C16            2.0421     5.6603     0.6368 C.ar    
  17 N17            3.3556     5.7406     0.5467 N.ar    
  18 C18            4.1075     4.6814     0.3162 C.ar    
  19 C19            3.5433     3.4317     0.1636 C.ar    
  20 F20           -1.4595     3.0938     0.7541 F       
  21 F21           -3.1559    -2.6567     0.5020 F       
  22 C22            5.6035     4.8378     0.2235 C.3     
  23 C23            6.4206     4.5798     1.4911 C.3     
  24 C24            6.4547     3.5718     0.3406 C.3     
  25 F25           -0.1063    -5.8894    -1.1405 F       
  26 H26            2.3798    -1.8450     0.1654 H       
  27 H27            1.6852    -4.0172    -0.8335 H       
  28 H28           -2.4479    -4.9950    -0.4148 H       
  29 H29           -1.0655    -1.1029     0.6597 H       
  30 H30           -0.3574     3.6849    -0.8577 H       
  31 H31           -1.5574     2.4064    -1.1642 H       
  32 H32            0.3188     4.3918     0.5663 H       
  33 H33            1.4656     6.5536     0.8263 H       
  34 H34            4.1649     2.5689    -0.0249 H       
  35 H35            5.9536     5.6195    -0.4505 H       
  36 H36            7.3085     5.1916     1.6508 H       
  37 H37            5.8761     4.2970     2.3920 H       
  38 H38            5.9327     2.6259     0.4846 H       
  39 H39            7.3651     3.5205    -0.2567 H       
@<TRIPOS>BOND
   1    1    2 1
   2    1    5 1
   3    1   14 1
   4    2    3 2
   5    3    4 1
   6    3    6 1
   7    4    5 2
   8    5   13 1
   9    6    7 1
  10    6   26 1
  11    7    8 ar
  12    7   12 ar
  13    8    9 ar
  14    8   27 1
  15    9   10 ar
  16    9   25 1
  17   10   11 ar
  18   10   28 1
  19   11   12 ar
  20   11   21 1
  21   12   29 1
  22   13   15 ar
  23   13   19 ar
  24   14   20 1
  25   14   30 1
  26   14   31 1
  27   15   16 ar
  28   15   32 1
  29   16   17 ar
  30   16   33 1
  31   17   18 ar
  32   18   19 ar
  33   18   22 1
  34   19   34 1
  35   22   23 1
  36   22   24 1
  37   22   35 1
  38   23   24 1
  39   23   36 1
  40   23   37 1
  41   24   38 1
  42   24   39 1

#	End of record

