#	Name: ASD01900843
#	Creating user name:	WinNT
#	Creation time:	15. 06. 2019 19:52

#	Modifying user name:	WinNT
#	Modification time:	15. 06. 2019 19:52

#	Program:	/corina/corina34_cracker 3.40 0067  02.08.2006

@<TRIPOS>MOLECULE
ASD01900843
  29   30    0    0    0
SMALL
NO_CHARGES


@<TRIPOS>ATOM
   1 N1            -0.0112     1.3113     0.0148 N.ar    
   2 C2             0.0157    -0.0036     0.0355 C.ar    
   3 C3             1.0553    -0.7034    -0.5556 C.ar    
   4 C4             2.0787    -0.0042    -1.1766 C.ar    
   5 C5             2.0240     1.3805    -1.1834 C.ar    
   6 C6             0.9485     2.0183    -0.5689 C.ar    
   7 C7             0.8754     3.4978    -0.5670 C.2     
   8 O8             1.7514     4.1501    -1.1000 O.2     
   9 N9            -0.1625     4.1205     0.0257 N.am    
  10 C10           -0.1764     5.5153     0.1259 C.ar    
  11 C11           -1.3765     6.2068     0.0320 C.ar    
  12 C12           -1.3865     7.5888     0.1322 C.ar    
  13 C13           -0.1971     8.2786     0.3262 C.ar    
  14 C14            0.9968     7.5884     0.4191 C.ar    
  15 C15            1.0098     6.2100     0.3253 C.ar    
  16 I16           -0.2121    10.3680     0.4778 I       
  17 O17           -2.5597     8.2687     0.0402 O.3     
  18 C18           -3.7441     7.4948    -0.1599 C.3     
  19 H19           -0.7832    -0.5451     0.5201 H       
  20 H20            1.0683    -1.7831    -0.5325 H       
  21 H21            2.9001    -0.5268    -1.6441 H       
  22 H22            2.8044     1.9570    -1.6577 H       
  23 H23           -0.8998     3.6012     0.3829 H       
  24 H24           -2.3006     5.6687    -0.1193 H       
  25 H25            1.9206     8.1272     0.5693 H       
  26 H26            1.9434     5.6726     0.4030 H       
  27 H27           -3.6579     6.9323    -1.0896 H       
  28 H28           -3.8711     6.8030     0.6728 H       
  29 H29           -4.6069     8.1586    -0.2155 H       
@<TRIPOS>BOND
   1    1    2 ar
   2    1    6 ar
   3    2    3 ar
   4    2   19 1
   5    3    4 ar
   6    3   20 1
   7    4    5 ar
   8    4   21 1
   9    5    6 ar
  10    5   22 1
  11    6    7 1
  12    7    8 2
  13    7    9 am
  14    9   10 1
  15    9   23 1
  16   10   11 ar
  17   10   15 ar
  18   11   12 ar
  19   11   24 1
  20   12   13 ar
  21   12   17 1
  22   13   14 ar
  23   13   16 1
  24   14   15 ar
  25   14   25 1
  26   15   26 1
  27   17   18 1
  28   18   27 1
  29   18   28 1
  30   18   29 1

#	End of record

