#	Name: ASD01670053
#	Creating user name:	WinNT
#	Creation time:	15. 06. 2019 19:22

#	Modifying user name:	WinNT
#	Modification time:	15. 06. 2019 19:22

#	Program:	/corina/corina34_cracker 3.40 0067  02.08.2006

@<TRIPOS>MOLECULE
ASD01670053
  72   75    0    0    0
SMALL
NO_CHARGES


@<TRIPOS>ATOM
   1 C1            -0.1506     1.1017     0.4078 C.ar    
   2 N2             1.1860     0.4997    -3.5648 N.am    
   3 O3             4.2018    -4.9285     1.6143 O.2     
   4 C4             0.6401     0.6775     1.4606 C.ar    
   5 N5             4.3414    -0.9515     0.9375 N.3     
   6 O6             8.8177    -5.4676     9.9421 O.2     
   7 C7             0.2836     0.9439    -0.8924 C.ar    
   8 O8             3.1126    -0.2450    -2.7488 O.2     
   9 C9             1.8708     0.0931     1.2180 C.ar    
  10 O10            2.8929    -3.4010     2.5541 O.3     
  11 C11            7.1136    -1.7095     2.6316 C.ar    
  12 O12            9.3673    -3.4768    10.7283 O.3     
  13 C13            0.4987     2.0643    -6.3279 C.ar    
  14 O14            5.1552    -4.6339     4.8084 O.3     
  15 C15           -0.3597    -0.1728    -6.3423 C.ar    
  16 O16            7.4463    -3.4264     5.8250 O.3     
  17 C17            7.5976    -2.0887     3.8722 C.ar    
  18 O18           -2.4066     1.9099    -8.5124 O.3     
  19 C19           -0.4959     2.4545    -7.2035 C.ar    
  20 C20           -1.3562     0.2124    -7.2181 C.ar    
  21 C21            1.5235     0.3549    -1.1440 C.ar    
  22 C22            5.3174    -3.2914     2.8456 C.ar    
  23 C23            0.5669     0.7520    -5.8976 C.ar    
  24 C24            2.3167    -0.0705    -0.0770 C.ar    
  25 C25            5.9825    -2.3025     2.1150 C.ar    
  26 C26            6.9502    -3.0686     4.6088 C.ar    
  27 C27            5.8072    -3.6746     4.1020 C.ar    
  28 C28           -1.4268     1.5284    -7.6512 C.ar    
  29 C29            1.9951     0.1826    -2.5346 C.2     
  30 C30            4.1062    -3.9282     2.2975 C.2     
  31 C31            8.7467    -4.2660     9.8374 C.2     
  32 C32            5.8789    -5.2487     5.8800 C.3     
  33 C33            6.5622    -4.1417     6.6950 C.3     
  34 C34           -3.3302     0.9033    -8.9313 C.3     
  35 C35            1.6533     0.3290    -4.9427 C.3     
  36 C36            3.6574    -0.7067    -0.3393 C.3     
  37 C37            5.4623    -1.8851     0.7637 C.3     
  38 C38            4.7945     0.3083     1.5420 C.3     
  39 C39            7.9614    -3.6532     8.7065 C.3     
  40 C40            7.3595    -4.7638     7.8431 C.3     
  41 H41           -1.1119     1.5533     0.6037 H       
  42 H42            0.2942     0.8409    -3.3938 H       
  43 H43            0.2956     0.8034     2.4764 H       
  44 H44           -0.3349     1.2752    -1.7135 H       
  45 H45            2.4836    -0.2353     2.0445 H       
  46 H46            2.1280    -3.8536     2.1731 H       
  47 H47            7.6229    -0.9418     2.0679 H       
  48 H48            9.8587    -3.9157    11.4361 H       
  49 H49            1.2263     2.7838    -5.9825 H       
  50 H50           -0.3045    -1.1971    -6.0045 H       
  51 H51            8.4853    -1.6183     4.2684 H       
  52 H52           -0.5490     3.4797    -7.5390 H       
  53 H53           -2.0800    -0.5103    -7.5649 H       
  54 H54            5.1906    -5.8030     6.5180 H       
  55 H55            6.6312    -5.9254     5.4748 H       
  56 H56            5.8102    -3.4616     7.0950 H       
  57 H57           -2.7905     0.1030    -9.4377 H       
  58 H58           -3.8466     0.4990    -8.0607 H       
  59 H59           -4.0581     1.3400    -9.6151 H       
  60 H60            2.5389     0.9434    -5.1047 H       
  61 H61            1.9011    -0.7183    -5.1152 H       
  62 H62            4.2622    -0.0396    -0.9535 H       
  63 H63            3.5147    -1.6524    -0.8622 H       
  64 H64            5.1211    -2.7648     0.2180 H       
  65 H65            6.2588    -1.3960     0.2029 H       
  66 H66            3.9543     0.9987     1.6159 H       
  67 H67            5.1916     0.1114     2.5378 H       
  68 H68            5.5739     0.7497     0.9208 H       
  69 H69            7.1610    -3.0350     9.1130 H       
  70 H70            8.6225    -3.0372     8.0970 H       
  71 H71            6.6984    -5.3798     8.4526 H       
  72 H72            8.1599    -5.3820     7.4365 H       
@<TRIPOS>BOND
   1    1    4 ar
   2    1    7 ar
   3    1   41 1
   4    2   29 am
   5    2   35 1
   6    2   42 1
   7    3   30 2
   8    4    9 ar
   9    4   43 1
  10    5   36 1
  11    5   37 1
  12    5   38 1
  13    6   31 2
  14    7   21 ar
  15    7   44 1
  16    8   29 2
  17    9   24 ar
  18    9   45 1
  19   10   30 1
  20   10   46 1
  21   11   17 ar
  22   11   25 ar
  23   11   47 1
  24   12   31 1
  25   12   48 1
  26   13   19 ar
  27   13   23 ar
  28   13   49 1
  29   14   27 1
  30   14   32 1
  31   15   20 ar
  32   15   23 ar
  33   15   50 1
  34   16   26 1
  35   16   33 1
  36   17   26 ar
  37   17   51 1
  38   18   28 1
  39   18   34 1
  40   19   28 ar
  41   19   52 1
  42   20   28 ar
  43   20   53 1
  44   21   24 ar
  45   21   29 1
  46   22   25 ar
  47   22   27 ar
  48   22   30 1
  49   23   35 1
  50   24   36 1
  51   25   37 1
  52   26   27 ar
  53   31   39 1
  54   32   33 1
  55   32   54 1
  56   32   55 1
  57   33   40 1
  58   33   56 1
  59   34   57 1
  60   34   58 1
  61   34   59 1
  62   35   60 1
  63   35   61 1
  64   36   62 1
  65   36   63 1
  66   37   64 1
  67   37   65 1
  68   38   66 1
  69   38   67 1
  70   38   68 1
  71   39   40 1
  72   39   69 1
  73   39   70 1
  74   40   71 1
  75   40   72 1

#	End of record

