#	Name: ASD05790071
#	Creating user name:	WinNT
#	Creation time:	15. 06. 2019 21:03

#	Modifying user name:	WinNT
#	Modification time:	15. 06. 2019 21:03

#	Program:	/corina/corina34_cracker 3.40 0067  02.08.2006

@<TRIPOS>MOLECULE
ASD05790071
  90   95    0    0    0
SMALL
NO_CHARGES


@<TRIPOS>ATOM
   1 C1             2.2155     0.1472    -3.4061 C.3     
   2 C2             2.6430    -1.2660    -3.7358 C.2     
   3 C3             3.4724    -1.4907    -4.9777 C.3     
   4 C4             4.6798    -0.5450    -4.9415 C.3     
   5 C5             4.1806     0.8995    -4.7604 C.3     
   6 C6             3.4564     1.0447    -3.4267 C.3     
   7 C7             5.4393    -0.6756    -6.2650 C.3     
   8 C8             4.5393    -0.2703    -7.4463 C.3     
   9 C9             4.1120     1.1656    -7.2187 C.3     
  10 C10            3.2636     1.2102    -5.9210 C.3     
  11 C11            3.1267     1.7460    -8.2412 C.3     
  12 C12            2.4328     2.8756    -7.4833 C.2     
  13 C13            2.6549     2.6056    -5.9888 C.3     
  14 C14            3.8974     2.2878    -9.4308 C.3     
  15 C15            3.0381     2.8750   -10.4965 C.3     
  16 C16            2.5567     4.2831   -10.2464 C.3     
  17 C17            1.3715     4.3168    -9.2976 C.3     
  18 C18            1.7423     3.8376    -7.9407 C.2     
  19 C19            2.1370     4.9281   -11.5954 C.3     
  20 C20            3.0698     6.1400   -11.7137 C.3     
  21 C21            4.2688     5.6592   -10.8492 C.3     
  22 O22            3.6371     5.0875    -9.7116 O.3     
  23 N23            3.5980     6.3915   -13.0502 N.3     
  24 C24            4.5431     7.5209   -12.9937 C.3     
  25 C25            5.7005     7.2597   -12.0343 C.3     
  26 C26            5.1811     6.8494   -10.6439 C.3     
  27 C27            5.3736     1.8568    -4.7968 C.3     
  28 C28            1.1601     4.6974    -6.8486 C.3     
  29 C29            6.5407     8.5315   -11.9020 C.3     
  30 C30            2.3673     3.9551   -12.7534 C.3     
  31 C31            2.5128     6.6602   -14.0032 C.3     
  32 O32            2.3296    -2.1902    -3.0244 O.2     
  33 C33            3.0993     7.2290   -15.2968 C.3     
  34 N34            2.0170     7.4971   -16.2471 N.am    
  35 C35            1.4122     8.7014   -16.2574 C.2     
  36 C36            0.2251     8.9408   -17.1544 C.3     
  37 O37            1.8232     9.5926   -15.5449 O.2     
  38 C38            1.5923     6.4560   -17.1862 C.3     
  39 H39            1.4977     0.4962    -4.1484 H       
  40 H40            1.7612     0.1716    -2.4156 H       
  41 H41            3.8181    -2.5240    -5.0045 H       
  42 H42            2.8705    -1.2813    -5.8620 H       
  43 H43            5.3305    -0.8141    -4.1095 H       
  44 H44            3.1544     2.0830    -3.2899 H       
  45 H45            4.1265     0.7544    -2.6175 H       
  46 H46            6.3159    -0.0282    -6.2420 H       
  47 H47            5.7597    -1.7093    -6.3952 H       
  48 H48            5.0964    -0.3475    -8.3800 H       
  49 H49            3.6623    -0.9165    -7.4826 H       
  50 H50            4.9874     1.8075    -7.1201 H       
  51 H51            2.4714     0.4633    -5.9738 H       
  52 H52            2.4038     0.9905    -8.5487 H       
  53 H53            1.7049     2.6301    -5.4549 H       
  54 H54            3.3437     3.3394    -5.5703 H       
  55 H55            4.5856     3.0558    -9.0776 H       
  56 H56            4.4817     1.4761    -9.8643 H       
  57 H57            3.5999     2.8673   -11.4305 H       
  58 H58            2.1659     2.2337   -10.6235 H       
  59 H59            1.0028     5.3400    -9.2251 H       
  60 H60            0.5795     3.6821    -9.6950 H       
  61 H61            1.0944     5.2444   -11.5623 H       
  62 H62            2.6093     7.0326   -11.2902 H       
  63 H63            4.8174     4.8862   -11.3875 H       
  64 H64            4.9442     7.6964   -13.9919 H       
  65 H65            4.0084     8.4131   -12.6678 H       
  66 H66            6.3237     6.4598   -12.4343 H       
  67 H67            4.6241     7.6727   -10.1967 H       
  68 H68            6.0167     6.5716   -10.0015 H       
  69 H69            5.9463     1.6891    -5.7089 H       
  70 H70            5.0144     2.8858    -4.7773 H       
  71 H71            6.0098     1.6775    -3.9301 H       
  72 H72            0.5786     5.5050    -7.2931 H       
  73 H73            0.5138     4.0908    -6.2142 H       
  74 H74            1.9669     5.1182    -6.2485 H       
  75 H75            5.9192     9.3388   -11.5144 H       
  76 H76            7.3692     8.3501   -11.2174 H       
  77 H77            6.9321     8.8118   -12.8799 H       
  78 H78            1.9821     2.9717   -12.4837 H       
  79 H79            1.8487     4.3174   -13.6411 H       
  80 H80            3.4350     3.8828   -12.9605 H       
  81 H81            1.9829     5.7330   -14.2213 H       
  82 H82            1.8197     7.3817   -13.5705 H       
  83 H83            3.6292     8.1562   -15.0786 H       
  84 H84            3.7924     6.5076   -15.7295 H       
  85 H85            0.0520     8.0588   -17.7711 H       
  86 H86           -0.6571     9.1370   -16.5451 H       
  87 H87            0.4219     9.7997   -17.7960 H       
  88 H88            0.7376     5.9204   -16.7728 H       
  89 H89            1.3098     6.9147   -18.1338 H       
  90 H90            2.4133     5.7582   -17.3508 H       
@<TRIPOS>BOND
   1    1    2 1
   2    1    6 1
   3    1   39 1
   4    1   40 1
   5    2    3 1
   6    2   32 2
   7    3    4 1
   8    3   41 1
   9    3   42 1
  10    4    5 1
  11    4    7 1
  12    4   43 1
  13    5    6 1
  14    5   27 1
  15    5   10 1
  16    6   44 1
  17    6   45 1
  18    7    8 1
  19    7   46 1
  20    7   47 1
  21    8    9 1
  22    8   48 1
  23    8   49 1
  24    9   10 1
  25    9   11 1
  26    9   50 1
  27   10   13 1
  28   10   51 1
  29   11   12 1
  30   11   14 1
  31   11   52 1
  32   12   13 1
  33   12   18 2
  34   13   53 1
  35   13   54 1
  36   14   15 1
  37   14   55 1
  38   14   56 1
  39   15   16 1
  40   15   57 1
  41   15   58 1
  42   16   17 1
  43   16   22 1
  44   16   19 1
  45   17   18 1
  46   17   59 1
  47   17   60 1
  48   18   28 1
  49   19   30 1
  50   19   20 1
  51   19   61 1
  52   20   21 1
  53   20   23 1
  54   20   62 1
  55   21   22 1
  56   21   26 1
  57   21   63 1
  58   23   24 1
  59   23   31 1
  60   24   25 1
  61   24   64 1
  62   24   65 1
  63   25   26 1
  64   25   29 1
  65   25   66 1
  66   26   67 1
  67   26   68 1
  68   27   69 1
  69   27   70 1
  70   27   71 1
  71   28   72 1
  72   28   73 1
  73   28   74 1
  74   29   75 1
  75   29   76 1
  76   29   77 1
  77   30   78 1
  78   30   79 1
  79   30   80 1
  80   31   33 1
  81   31   81 1
  82   31   82 1
  83   33   34 1
  84   33   83 1
  85   33   84 1
  86   34   35 am
  87   34   38 1
  88   35   36 1
  89   35   37 2
  90   36   85 1
  91   36   86 1
  92   36   87 1
  93   38   88 1
  94   38   89 1
  95   38   90 1

#	End of record

