#	Name: ASD01813459
#	Creating user name:	WinNT
#	Creation time:	15. 06. 2019 19:30

#	Modifying user name:	WinNT
#	Modification time:	15. 06. 2019 19:30

#	Program:	/corina/corina34_cracker 3.40 0067  02.08.2006

@<TRIPOS>MOLECULE
ASD01813459
  46   50    0    0    0
SMALL
NO_CHARGES


@<TRIPOS>ATOM
   1 C1            -0.0167     1.3811     0.0096 C.ar    
   2 C2             0.0021    -0.0041     0.0020 C.ar    
   3 C3            -1.1840    -0.7137     0.0095 C.ar    
   4 C4            -2.4012    -0.0328     0.0248 C.ar    
   5 C5            -2.4146     1.3619     0.0324 C.ar    
   6 C6            -1.2229     2.0621     0.0306 C.ar    
   7 C7             1.2795     2.1497     0.0014 C.3     
   8 N8             1.6864     2.4062    -1.3824 N.am    
   9 C9             1.2624     3.5530    -2.0048 C.2     
  10 C10            2.4704     1.5165    -2.0118 C.2     
  11 N11            2.8723     1.7056    -3.2829 N.am    
  12 C12            2.4813     2.8348    -3.9765 C.2     
  13 C13            1.6236     3.8082    -3.2734 C.2     
  14 O14            2.8265     0.5161    -1.4196 O.2     
  15 C15            3.7179     0.8824    -4.1620 C.3     
  16 C16            3.7673     1.6906    -5.4721 C.3     
  17 N17            2.9497     2.8762    -5.1947 N.2     
  18 F18            1.1817    -0.6624    -0.0132 F       
  19 F19           -1.2345     3.4130     0.0384 F       
  20 C20           -3.6748    -0.7880     0.0324 C.ar    
  21 C21           -3.9006    -1.7987    -0.8806 C.ar    
  22 C22           -5.0934    -2.5172    -0.8851 C.ar    
  23 C23           -6.0963    -2.2748    -0.0054 C.ar    
  24 C24           -5.9658    -1.2625     0.9687 C.ar    
  25 C25           -4.7188    -0.4830     1.0120 C.ar    
  26 N26           -6.7370    -0.7972     1.9349 N.2     
  27 N27           -6.0641     0.2382     2.5941 N.pl3   
  28 C28           -4.8566     0.4232     2.0404 C.2     
  29 C29           -6.5978     1.0033     3.7237 C.3     
  30 H30           -1.1683    -1.7936     0.0032 H       
  31 H31           -3.3545     1.8938     0.0443 H       
  32 H32            1.1431     3.0978     0.5216 H       
  33 H33            2.0508     1.5668     0.5048 H       
  34 H34            0.6354     4.2533    -1.4728 H       
  35 H35            1.2897     4.7071    -3.7704 H       
  36 H36            4.7172     0.7728    -3.7408 H       
  37 H37            3.2618    -0.0932    -4.3298 H       
  38 H38            4.7925     1.9798    -5.7035 H       
  39 H39            3.3382     1.1146    -6.2920 H       
  40 H40           -3.1369    -2.0367    -1.6062 H       
  41 H41           -5.2252    -3.2986    -1.6189 H       
  42 H42           -7.0023    -2.8608    -0.0510 H       
  43 H43           -4.1224     1.1539     2.3462 H       
  44 H44           -6.3225     0.5126     4.6573 H       
  45 H45           -6.1840     2.0116     3.7075 H       
  46 H46           -7.6838     1.0549     3.6468 H       
@<TRIPOS>BOND
   1    1    2 ar
   2    1    7 1
   3    1    6 ar
   4    2    3 ar
   5    2   18 1
   6    3    4 ar
   7    3   30 1
   8    4    5 ar
   9    4   20 1
  10    5    6 ar
  11    5   31 1
  12    6   19 1
  13    7    8 1
  14    7   32 1
  15    7   33 1
  16    8    9 1
  17    8   10 am
  18    9   13 2
  19    9   34 1
  20   10   11 am
  21   10   14 2
  22   11   12 1
  23   11   15 1
  24   12   13 1
  25   12   17 2
  26   13   35 1
  27   15   16 1
  28   15   36 1
  29   15   37 1
  30   16   17 1
  31   16   38 1
  32   16   39 1
  33   20   21 ar
  34   20   25 ar
  35   21   22 ar
  36   21   40 1
  37   22   23 ar
  38   22   41 1
  39   23   24 ar
  40   23   42 1
  41   24   25 ar
  42   24   26 2
  43   25   28 2
  44   26   27 1
  45   27   28 1
  46   27   29 1
  47   28   43 1
  48   29   44 1
  49   29   45 1
  50   29   46 1

#	End of record

