#	Name: ASD01810468
#	Creating user name:	WinNT
#	Creation time:	15. 06. 2019 19:24

#	Modifying user name:	WinNT
#	Modification time:	15. 06. 2019 19:24

#	Program:	/corina/corina34_cracker 3.40 0067  02.08.2006

@<TRIPOS>MOLECULE
ASD01810468
  56   59    0    0    0
SMALL
NO_CHARGES


@<TRIPOS>ATOM
   1 C1            -0.0168     1.3904     0.0097 C.ar    
   2 C2             0.0021    -0.0041     0.0020 C.ar    
   3 C3             1.2502     2.1938     0.0019 C.3     
   4 C4             2.4543     1.4043     0.3979 C.2     
   5 C5             2.5024     0.0632     0.3993 C.2     
   6 C6             1.3020    -0.7126     0.0149 C.2     
   7 C7             3.7455    -0.6342     0.7820 C.2     
   8 C8             1.4696     2.7504    -1.4063 C.3     
   9 C9             2.6707     3.6605    -1.4052 C.ar    
  10 O10            4.7289     0.0059     1.0969 O.2     
  11 O11            3.7897    -1.9807     0.7821 O.3     
  12 C12            3.9274     3.1433    -1.6633 C.ar    
  13 C13            5.0309     3.9723    -1.6635 C.ar    
  14 C14            4.8772     5.3326    -1.4035 C.ar    
  15 C15            3.6089     5.8482    -1.1446 C.ar    
  16 C16            2.5117     5.0110    -1.1517 C.ar    
  17 C17           -1.1909    -0.7263    -0.0059 C.ar    
  18 C18           -2.3968    -0.0557     0.0007 C.ar    
  19 C19           -2.4160     1.3282     0.0154 C.ar    
  20 C20           -1.2353     2.0467     0.0190 C.ar    
  21 C21            6.0600     6.2287    -1.4019 C.ar    
  22 C22            5.9063     7.5891    -1.1420 C.ar    
  23 O23            1.3806    -1.8892    -0.2803 O.2     
  24 C24            7.3289     5.7120    -1.6547 C.ar    
  25 C25            8.4257     6.5502    -1.6521 C.ar    
  26 C26            8.2667     7.9005    -1.3991 C.ar    
  27 C27            7.0097     8.4179    -1.1418 C.ar    
  28 N28            6.6088    10.6006    -2.1317 N.3     
  29 C29            6.8442     9.8905    -0.8675 C.3     
  30 C30            6.2090    11.9928    -1.8869 C.3     
  31 C31            7.7926    10.5376    -2.9992 C.3     
  32 H32            1.1380     3.0301     0.6919 H       
  33 H33            3.3389     1.9447     0.7008 H       
  34 H34            1.6384     1.9269    -2.1002 H       
  35 H35            0.5885     3.3120    -1.7164 H       
  36 H36            4.6258    -2.3925     1.0400 H       
  37 H37            4.0454     2.0888    -1.8646 H       
  38 H38            6.0117     3.5674    -1.8644 H       
  39 H39            3.4842     6.9018    -0.9425 H       
  40 H40            1.5282     5.4097    -0.9515 H       
  41 H41           -1.1709    -1.8061    -0.0176 H       
  42 H42           -3.3239    -0.6096    -0.0061 H       
  43 H43           -3.3611     1.8508     0.0235 H       
  44 H44           -1.2637     3.1263     0.0315 H       
  45 H45            4.9254     7.9941    -0.9413 H       
  46 H46            7.4542     4.6576    -1.8521 H       
  47 H47            9.4099     6.1507    -1.8476 H       
  48 H48            9.1275     8.5526    -1.3976 H       
  49 H49            5.9948    10.0428    -0.2015 H       
  50 H50            7.7486    10.2763    -0.3970 H       
  51 H51            6.0411    12.4955    -2.8394 H       
  52 H52            5.2903    12.0093    -1.3005 H       
  53 H53            6.9989    12.5067    -1.3392 H       
  54 H54            8.6213    11.0604    -2.5217 H       
  55 H55            8.0670     9.4957    -3.1643 H       
  56 H56            7.5678    11.0100    -3.9555 H       
@<TRIPOS>BOND
   1    1    2 ar
   2    1    3 1
   3    1   20 ar
   4    2   17 ar
   5    2    6 1
   6    3    4 1
   7    3    8 1
   8    3   32 1
   9    4    5 2
  10    4   33 1
  11    5    6 1
  12    5    7 1
  13    6   23 2
  14    7   10 2
  15    7   11 1
  16    8    9 1
  17    8   34 1
  18    8   35 1
  19    9   12 ar
  20    9   16 ar
  21   11   36 1
  22   12   13 ar
  23   12   37 1
  24   13   14 ar
  25   13   38 1
  26   14   15 ar
  27   14   21 1
  28   15   16 ar
  29   15   39 1
  30   16   40 1
  31   17   18 ar
  32   17   41 1
  33   18   19 ar
  34   18   42 1
  35   19   20 ar
  36   19   43 1
  37   20   44 1
  38   21   22 ar
  39   21   24 ar
  40   22   27 ar
  41   22   45 1
  42   24   25 ar
  43   24   46 1
  44   25   26 ar
  45   25   47 1
  46   26   27 ar
  47   26   48 1
  48   27   29 1
  49   28   30 1
  50   28   31 1
  51   28   29 1
  52   29   49 1
  53   29   50 1
  54   30   51 1
  55   30   52 1
  56   30   53 1
  57   31   54 1
  58   31   55 1
  59   31   56 1

#	End of record

