#	Name: ASD01208055
#	Creating user name:	WinNT
#	Creation time:	15. 06. 2019 19:09

#	Modifying user name:	WinNT
#	Modification time:	15. 06. 2019 19:09

#	Program:	/corina/corina34_cracker 3.40 0067  02.08.2006

@<TRIPOS>MOLECULE
ASD01208055
  63   67    0    0    0
SMALL
NO_CHARGES


@<TRIPOS>ATOM
   1 C1            -0.0846     1.4338     0.0273 C.ar    
   2 C2             0.0181     0.0510    -0.0133 C.ar    
   3 C3            -1.1250    -0.7354     0.0264 C.ar    
   4 C4            -2.3737    -0.1418     0.1072 C.ar    
   5 C5            -2.4814     1.2493     0.1487 C.ar    
   6 C6            -1.3291     2.0357     0.1134 C.ar    
   7 C7            -3.8115     1.8871     0.2344 C.2     
   8 C8            -4.0514     3.2303     0.2811 C.2     
   9 N9            -5.0142     1.2310     0.2746 N.pl3   
  10 C10           -6.0179     2.1654     0.3531 C.2     
  11 C11           -5.4347     3.4137     0.3581 C.2     
  12 O12            1.0379     2.1990    -0.0118 O.3     
  13 C13            0.8559     3.6142    -0.0910 C.3     
  14 C14            2.0900     4.2519    -0.7322 C.3     
  15 O15            3.2211     4.0634     0.1205 O.3     
  16 C16            0.6608     4.1828     1.3159 C.3     
  17 O17           -1.0188    -2.0895    -0.0146 O.3     
  18 C18           -1.4880    -2.7332    -1.1155 C.ar    
  19 C19           -1.9390    -2.0048    -2.2070 C.ar    
  20 C20           -1.5117    -4.1200    -1.1524 C.ar    
  21 C21           -1.9887    -4.7719    -2.2729 C.ar    
  22 C22           -2.4424    -4.0437    -3.3572 C.ar    
  23 C23           -2.4150    -2.6616    -3.3251 C.ar    
  24 C24           -7.4599     1.8835     0.4165 C.2     
  25 C25            4.4327     4.6248    -0.3884 C.3     
  26 N26           -8.4047     2.7809     0.4909 N.2     
  27 C27           -9.6412     2.3411     0.5386 C.2     
  28 C28           -9.7898     1.0128     0.5051 C.2     
  29 S29           -8.1903     0.2805     0.3968 S.3     
  30 S30           -3.0496    -4.8784    -4.7852 S.o2    
  31 N31           -4.6759    -5.1026    -4.5674 N.am    
  32 C32           -5.8996    -4.3473    -4.8753 C.3     
  33 C33           -6.5688    -5.0523    -3.6873 C.3     
  34 C34           -5.5323    -6.1478    -3.9868 C.3     
  35 O35           -2.9115    -3.9706    -5.8697 O.2     
  36 O36           -2.4612    -6.1718    -4.7746 O.2     
  37 H37            0.9903    -0.4151    -0.0763 H       
  38 H38           -3.2627    -0.7543     0.1376 H       
  39 H39           -1.4080     3.1124     0.1458 H       
  40 H40           -3.3057     4.0113     0.2620 H       
  41 H41           -5.1360     0.2689     0.2513 H       
  42 H42           -5.9518     4.3603     0.4117 H       
  43 H43           -0.0230     3.8341    -0.6969 H       
  44 H44            2.2809     3.7836    -1.6978 H       
  45 H45            1.9157     5.3185    -0.8739 H       
  46 H46            0.5220     5.2622     1.2555 H       
  47 H47           -0.2184     3.7284     1.7728 H       
  48 H48            1.5398     3.9628     1.9219 H       
  49 H49           -1.9182    -0.9253    -2.1823 H       
  50 H50           -1.1571    -4.6893    -0.3059 H       
  51 H51           -2.0069    -5.8514    -2.3023 H       
  52 H52           -2.7704    -2.0951    -4.1732 H       
  53 H53            4.3069     5.6991    -0.5229 H       
  54 H54            5.2432     4.4393     0.3164 H       
  55 H55            4.6721     4.1641    -1.3468 H       
  56 H56          -10.4859     3.0111     0.6013 H       
  57 H57          -10.7288     0.4802     0.5352 H       
  58 H58           -5.7920    -3.2714    -4.7370 H       
  59 H59           -6.3394    -4.6071    -5.8382 H       
  60 H60           -6.4277    -4.5483    -2.7312 H       
  61 H61           -7.6002    -5.3540    -3.8699 H       
  62 H62           -5.8766    -6.8844    -4.7127 H       
  63 H63           -5.1109    -6.6033    -3.0907 H       
@<TRIPOS>BOND
   1    1    2 ar
   2    1   12 1
   3    1    6 ar
   4    2    3 ar
   5    2   37 1
   6    3    4 ar
   7    3   17 1
   8    4    5 ar
   9    4   38 1
  10    5    6 ar
  11    5    7 1
  12    6   39 1
  13    7    8 2
  14    7    9 1
  15    8   11 1
  16    8   40 1
  17    9   10 1
  18    9   41 1
  19   10   11 2
  20   10   24 1
  21   11   42 1
  22   12   13 1
  23   13   14 1
  24   13   16 1
  25   13   43 1
  26   14   15 1
  27   14   44 1
  28   14   45 1
  29   15   25 1
  30   16   46 1
  31   16   47 1
  32   16   48 1
  33   17   18 1
  34   18   19 ar
  35   18   20 ar
  36   19   23 ar
  37   19   49 1
  38   20   21 ar
  39   20   50 1
  40   21   22 ar
  41   21   51 1
  42   22   23 ar
  43   22   30 1
  44   23   52 1
  45   24   26 2
  46   24   29 1
  47   25   53 1
  48   25   54 1
  49   25   55 1
  50   26   27 1
  51   27   28 2
  52   27   56 1
  53   28   29 1
  54   28   57 1
  55   30   31 am
  56   30   35 2
  57   30   36 2
  58   31   32 1
  59   31   34 1
  60   32   33 1
  61   32   58 1
  62   32   59 1
  63   33   34 1
  64   33   60 1
  65   33   61 1
  66   34   62 1
  67   34   63 1

#	End of record

