#	Name: ASD01813767
#	Creating user name:	WinNT
#	Creation time:	15. 06. 2019 19:31

#	Modifying user name:	WinNT
#	Modification time:	15. 06. 2019 19:31

#	Program:	/corina/corina34_cracker 3.40 0067  02.08.2006

@<TRIPOS>MOLECULE
ASD01813767
  59   63    0    0    0
SMALL
NO_CHARGES


@<TRIPOS>ATOM
   1 C1            -0.0173     1.4248     0.0099 C.3     
   2 O2             0.0021    -0.0041     0.0020 O.3     
   3 C3             0.6048    -0.6061    -1.0540 C.ar    
   4 C4             0.6506    -1.9925    -1.1210 C.ar    
   5 C5             1.2684    -2.5944    -2.2037 C.ar    
   6 C6             1.8211    -1.7837    -3.1853 C.ar    
   7 C7             2.5033    -2.3943    -4.3822 C.3     
   8 C8             1.4949    -2.6043    -5.4823 C.ar    
   9 C9             0.8885    -3.8088    -5.6081 C.ar    
  10 C10           -0.0563    -4.0467    -6.6184 C.ar    
  11 C11           -0.7201    -5.3485    -6.7644 C.2     
  12 O12           -0.4731    -6.2724    -6.0104 O.2     
  13 N13           -1.6171    -5.4819    -7.7689 N.am    
  14 C14           -1.8805    -4.4423    -8.5994 C.2     
  15 N15           -1.3047    -3.2808    -8.4887 N.2     
  16 C16           -0.3974    -3.0308    -7.5298 C.ar    
  17 C17            0.2525    -1.7299    -7.3998 C.ar    
  18 C18           -0.0388    -0.6748    -8.2704 C.ar    
  19 C19            0.5917     0.5249    -8.1126 C.ar    
  20 C20            1.5220     0.7122    -7.0953 C.ar    
  21 C21            1.8283    -0.2956    -6.2302 C.ar    
  22 C22            1.1947    -1.5411    -6.3595 C.ar    
  23 C23           -2.3086    -6.7591    -7.9611 C.3     
  24 H24           -1.9746    -7.4732    -7.2084 H       
  25 C25           -3.7941    -6.5530    -7.8383 C.3     
  26 C26           -4.5075    -7.7655    -7.2101 C.3     
  27 C27           -3.9776    -9.1114    -7.7407 C.3     
  28 C28           -3.7375    -9.0904    -9.2260 C.3     
  29 C29           -2.2580    -8.7350    -9.4782 C.3     
  30 C30           -2.0007    -7.3083    -9.3691 C.3     
  31 H31           -2.6219    -6.7848   -10.0958 H       
  32 O32           -0.6269    -7.0584    -9.6731 O.3     
  33 C33            1.7386    -0.4115    -3.0535 C.ar    
  34 N34            1.1384     0.1330    -2.0124 N.ar    
  35 H35            1.0053     1.8021     0.0021 H       
  36 H36           -0.5445     1.7859    -0.8732 H       
  37 H37           -0.5275     1.7763     0.9067 H       
  38 H38            0.2104    -2.5930    -0.3388 H       
  39 H39            1.3196    -3.6703    -2.2825 H       
  40 H40            3.2894    -1.7255    -4.7328 H       
  41 H41            2.9400    -3.3528    -4.1018 H       
  42 H42            1.1370    -4.6015    -4.9180 H       
  43 H43           -2.6021    -4.5855    -9.3901 H       
  44 H44           -0.7590    -0.8090    -9.0639 H       
  45 H45            0.3662     1.3387    -8.7857 H       
  46 H46            2.0091     1.6704    -6.9896 H       
  47 H47            2.5527    -0.1349    -5.4455 H       
  48 H48           -3.9784    -5.6754    -7.2186 H       
  49 H49           -4.2087    -6.3751    -8.8305 H       
  50 H50           -4.3682    -7.7343    -6.1295 H       
  51 H51           -5.5735    -7.6974    -7.4270 H       
  52 H52           -3.0406    -9.3454    -7.2353 H       
  53 H53           -4.7039    -9.8913    -7.5118 H       
  54 H54           -3.9549   -10.0725    -9.6459 H       
  55 H55           -4.3784    -8.3407    -9.6900 H       
  56 H56           -1.6399    -9.2588    -8.7489 H       
  57 H57           -1.9803    -9.0687   -10.4780 H       
  58 H58           -0.3531    -7.3749   -10.5448 H       
  59 H59            2.1670     0.2238    -3.8146 H       
@<TRIPOS>BOND
   1    1    2 1
   2    1   35 1
   3    1   36 1
   4    1   37 1
   5    2    3 1
   6    3   34 ar
   7    3    4 ar
   8    4    5 ar
   9    4   38 1
  10    5    6 ar
  11    5   39 1
  12    6    7 1
  13    6   33 ar
  14    7    8 1
  15    7   40 1
  16    7   41 1
  17    8   22 ar
  18    8    9 ar
  19    9   10 ar
  20    9   42 1
  21   10   16 ar
  22   10   11 1
  23   11   12 2
  24   11   13 am
  25   13   14 1
  26   13   23 1
  27   14   15 2
  28   14   43 1
  29   15   16 1
  30   16   17 ar
  31   17   22 ar
  32   17   18 ar
  33   18   19 ar
  34   18   44 1
  35   19   20 ar
  36   19   45 1
  37   20   21 ar
  38   20   46 1
  39   21   22 ar
  40   21   47 1
  41   23   24 1
  42   23   30 1
  43   23   25 1
  44   25   26 1
  45   25   48 1
  46   25   49 1
  47   26   27 1
  48   26   50 1
  49   26   51 1
  50   27   28 1
  51   27   52 1
  52   27   53 1
  53   28   29 1
  54   28   54 1
  55   28   55 1
  56   29   30 1
  57   29   56 1
  58   29   57 1
  59   30   31 1
  60   30   32 1
  61   32   58 1
  62   33   34 ar
  63   33   59 1

#	End of record

