#	Name: ASD01411208
#	Creating user name:	WinNT
#	Creation time:	15. 06. 2019 19:19

#	Modifying user name:	WinNT
#	Modification time:	15. 06. 2019 19:19

#	Program:	/corina/corina34_cracker 3.40 0067  02.08.2006

@<TRIPOS>MOLECULE
ASD01411208
  45   48    0    0    0
SMALL
NO_CHARGES


@<TRIPOS>ATOM
   1 S1             0.5418     1.3940     0.8656 S.o2    
   2 N2             0.1960    -0.1038     0.2732 N.am    
   3 C3             1.0537    -0.8914    -0.2420 C.2     
   4 N4             2.3946    -0.6193    -0.3398 N.pl3   
   5 C5             3.0444     0.3446     0.5411 C.3     
   6 C6             2.2905     1.6747     0.4832 C.3     
   7 C7             0.6215    -2.2419    -0.7899 C.3     
   8 C8             1.7468    -3.2358    -0.4917 C.3     
   9 C9             3.0373    -2.8356    -1.1940 C.3     
  10 C10            3.1560    -1.3271    -1.3745 C.3     
  11 C11           -0.6488    -2.6872    -0.1124 C.ar    
  12 C12           -1.7873    -2.9168    -0.8629 C.ar    
  13 C13           -2.9530    -3.3250    -0.2444 C.ar    
  14 C14           -2.9808    -3.5047     1.1313 C.ar    
  15 C15           -1.8370    -3.2737     1.8820 C.ar    
  16 C16           -0.6723    -2.8710     1.2578 C.ar    
  17 O17           -4.1264    -3.9058     1.7422 O.3     
  18 C18           -4.3525    -5.2414     1.8611 C.ar    
  19 C19           -5.5599    -5.6992     2.3738 C.ar    
  20 C20           -5.7889    -7.0579     2.4938 C.ar    
  21 C21           -4.8156    -7.9617     2.1032 C.ar    
  22 C22           -3.6103    -7.5064     1.5919 C.ar    
  23 C23           -3.3808    -6.1475     1.4655 C.ar    
  24 F24           -2.6614    -8.3897     1.2117 F       
  25 F25           -5.0406    -9.2886     2.2210 F       
  26 F26           -6.5098    -4.8175     2.7555 F       
  27 O27           -0.2789     2.2669     0.1017 O.2     
  28 O28            0.3561     1.2633     2.2684 O.2     
  29 H29            3.0361    -0.0338     1.5633 H       
  30 H30            4.0742     0.4961     0.2177 H       
  31 H31            2.3801     2.1001    -0.5163 H       
  32 H32            2.7154     2.3654     1.2116 H       
  33 H33            0.4640    -2.1722    -1.8662 H       
  34 H34            1.9204    -3.2665     0.5840 H       
  35 H35            1.4474    -4.2270    -0.8324 H       
  36 H36            3.8839    -3.1884    -0.6050 H       
  37 H37            3.0684    -3.3120    -2.1739 H       
  38 H38            2.7699    -1.0515    -2.3559 H       
  39 H39            4.2051    -1.0391    -1.3084 H       
  40 H40           -1.7651    -2.7764    -1.9335 H       
  41 H41           -3.8420    -3.5039    -0.8309 H       
  42 H42           -1.8560    -3.4127     2.9529 H       
  43 H43            0.2196    -2.6955     1.8411 H       
  44 H44           -6.7272    -7.4139     2.8926 H       
  45 H45           -2.4435    -5.7931     1.0627 H       
@<TRIPOS>BOND
   1    1    2 am
   2    1    6 1
   3    1   27 2
   4    1   28 2
   5    2    3 2
   6    3    4 1
   7    3    7 1
   8    4    5 1
   9    4   10 1
  10    5    6 1
  11    5   29 1
  12    5   30 1
  13    6   31 1
  14    6   32 1
  15    7    8 1
  16    7   11 1
  17    7   33 1
  18    8    9 1
  19    8   34 1
  20    8   35 1
  21    9   10 1
  22    9   36 1
  23    9   37 1
  24   10   38 1
  25   10   39 1
  26   11   12 ar
  27   11   16 ar
  28   12   13 ar
  29   12   40 1
  30   13   14 ar
  31   13   41 1
  32   14   15 ar
  33   14   17 1
  34   15   16 ar
  35   15   42 1
  36   16   43 1
  37   17   18 1
  38   18   19 ar
  39   18   23 ar
  40   19   20 ar
  41   19   26 1
  42   20   21 ar
  43   20   44 1
  44   21   22 ar
  45   21   25 1
  46   22   23 ar
  47   22   24 1
  48   23   45 1

#	End of record

