#	Name: ASD01914603
#	Creating user name:	WinNT
#	Creation time:	15. 06. 2019 20:03

#	Modifying user name:	WinNT
#	Modification time:	15. 06. 2019 20:03

#	Program:	/corina/corina34_cracker 3.40 0067  02.08.2006

@<TRIPOS>MOLECULE
ASD01914603
  33   36    0    0    0
SMALL
NO_CHARGES


@<TRIPOS>ATOM
   1 C1            -0.0167     1.3787     0.0096 C.ar    
   2 C2             0.0021    -0.0041     0.0020 C.ar    
   3 C3             1.2019    -0.6889    -0.0056 C.ar    
   4 C4             2.4013     0.0073    -0.0052 C.ar    
   5 C5             2.3741     1.4059    -0.0126 C.ar    
   6 C6             1.1729     2.0856     0.0021 C.ar    
   7 O7             3.5788    -0.6678     0.0260 O.3     
   8 C8             4.7276    -0.1116    -0.6243 C.3     
   9 C9             4.7576     1.3676    -0.3468 C.2     
  10 N10            3.6054     2.0712    -0.0573 N.pl3   
  11 C11            5.7742     2.2517    -0.3163 C.2     
  12 N12            5.2463     3.4705    -0.0159 N.2     
  13 C13            3.9516     3.3542     0.1365 C.2     
  14 C14            7.1561     1.9624    -0.5552 C.1     
  15 C15            8.2891     1.7252    -0.7510 C.1     
  16 C16            9.6711     1.4359    -0.9899 C.ar    
  17 C17           10.6236     2.4565    -0.9252 C.ar    
  18 C18           11.9527     2.1703    -1.1564 C.ar    
  19 C19           12.3441     0.8763    -1.4520 C.ar    
  20 C20           11.4066    -0.1394    -1.5183 C.ar    
  21 C21           10.0747     0.1305    -1.2832 C.ar    
  22 H22           -0.9589     1.9065     0.0169 H       
  23 H23           -0.9282    -0.5527     0.0024 H       
  24 H24            1.2059    -1.7689    -0.0114 H       
  25 H25            1.1614     3.1656     0.0072 H       
  26 H26            5.6324    -0.5772    -0.2336 H       
  27 H27            4.6603    -0.2826    -1.6987 H       
  28 H28            3.2726     4.1586     0.3778 H       
  29 H29           10.3195     3.4670    -0.6949 H       
  30 H30           12.6899     2.9581    -1.1071 H       
  31 H31           13.3864     0.6581    -1.6322 H       
  32 H32           11.7194    -1.1469    -1.7498 H       
  33 H33            9.3442    -0.6633    -1.3349 H       
@<TRIPOS>BOND
   1    1    2 ar
   2    1    6 ar
   3    1   22 1
   4    2    3 ar
   5    2   23 1
   6    3    4 ar
   7    3   24 1
   8    4    5 ar
   9    4    7 1
  10    5    6 ar
  11    5   10 1
  12    6   25 1
  13    7    8 1
  14    8    9 1
  15    8   26 1
  16    8   27 1
  17    9   10 1
  18    9   11 2
  19   10   13 1
  20   11   12 1
  21   11   14 1
  22   12   13 2
  23   13   28 1
  24   14   15 3
  25   15   16 1
  26   16   17 ar
  27   16   21 ar
  28   17   18 ar
  29   17   29 1
  30   18   19 ar
  31   18   30 1
  32   19   20 ar
  33   19   31 1
  34   20   21 ar
  35   20   32 1
  36   21   33 1

#	End of record

