#	Name: ASD02198169
#	Creating user name:	WinNT
#	Creation time:	15. 06. 2019 20:18

#	Modifying user name:	WinNT
#	Modification time:	15. 06. 2019 20:18

#	Program:	/corina/corina34_cracker 3.40 0067  02.08.2006

@<TRIPOS>MOLECULE
ASD02198169
  44   46    0    0    0
SMALL
NO_CHARGES


@<TRIPOS>ATOM
   1 C1             0.5566     1.3825    -0.6389 C.2     
   2 C2             0.4643     0.0094    -0.5495 C.2     
   3 C3            -0.7715    -0.6766    -0.3196 C.1     
   4 S4             2.1675     1.8667    -0.9173 S.3     
   5 C5             2.7366     0.2052    -0.9156 C.2     
   6 C6             1.6818    -0.6501    -0.7039 C.2     
   7 C7             4.0751    -0.1918    -1.1028 C.2     
   8 C8             5.0996     0.8106    -1.4645 C.ar    
   9 O9             4.3888    -1.3624    -0.9664 O.2     
  10 N10            1.8156    -2.0291    -0.6499 N.pl3   
  11 N11           -0.5088     2.2452    -0.5248 N.pl3   
  12 N12           -1.7518    -1.2208    -0.1371 N.1     
  13 C13            6.4243     0.6361    -1.0575 C.ar    
  14 C14           -0.2911     3.6276    -0.5065 C.ar    
  15 C15           -1.2034     4.4828    -1.1108 C.ar    
  16 C16            7.3760     1.5723    -1.3965 C.ar    
  17 C17            7.0197     2.6893    -2.1424 C.ar    
  18 C18            5.7028     2.8665    -2.5492 C.ar    
  19 C19            4.7465     1.9317    -2.2190 C.ar    
  20 C20           -0.9877     5.8465    -1.0923 C.ar    
  21 C21            0.1401     6.3624    -0.4707 C.ar    
  22 C22            1.0521     5.5090     0.1327 C.ar    
  23 C23            0.8346     4.1454     0.1209 C.ar    
  24 O24            0.3520     7.7055    -0.4534 O.3     
  25 O25            7.9605     3.6101    -2.4742 O.3     
  26 C26            7.5257     4.7340    -3.2422 C.3     
  27 F27            6.9896     4.2903    -4.4558 F       
  28 F28            6.5478     5.4358    -2.5293 F       
  29 F29            1.5045     7.7741     1.5463 F       
  30 C30            1.5336     8.1675     0.2041 C.3     
  31 F31            2.6591     7.6174    -0.4187 F       
  32 H32            2.6884    -2.4365    -0.7645 H       
  33 H33            1.0365    -2.5864    -0.4976 H       
  34 H34           -1.4110     1.8954    -0.4569 H       
  35 H35            6.7018    -0.2316    -0.4775 H       
  36 H36           -2.0811     4.0813    -1.5953 H       
  37 H37            8.4005     1.4382    -1.0819 H       
  38 H38            5.4296     3.7360    -3.1285 H       
  39 H39            3.7232     2.0700    -2.5355 H       
  40 H40           -1.6971     6.5117    -1.5621 H       
  41 H41            1.9301     5.9114     0.6161 H       
  42 H42            1.5446     3.4811     0.5912 H       
  43 H43            8.3737     5.3903    -3.4380 H       
  44 H44            1.5808     9.2548     0.1451 H       
@<TRIPOS>BOND
   1    1    2 2
   2    1    4 1
   3    1   11 1
   4    2    3 1
   5    2    6 1
   6    3   12 3
   7    4    5 1
   8    5    6 2
   9    5    7 1
  10    6   10 1
  11    7    8 1
  12    7    9 2
  13    8   13 ar
  14    8   19 ar
  15   10   32 1
  16   10   33 1
  17   11   14 1
  18   11   34 1
  19   13   16 ar
  20   13   35 1
  21   14   15 ar
  22   14   23 ar
  23   15   20 ar
  24   15   36 1
  25   16   17 ar
  26   16   37 1
  27   17   18 ar
  28   17   25 1
  29   18   19 ar
  30   18   38 1
  31   19   39 1
  32   20   21 ar
  33   20   40 1
  34   21   22 ar
  35   21   24 1
  36   22   23 ar
  37   22   41 1
  38   23   42 1
  39   24   30 1
  40   25   26 1
  41   26   27 1
  42   26   28 1
  43   26   43 1
  44   29   30 1
  45   30   31 1
  46   30   44 1

#	End of record

