#	Name: ASD03730361
#	Creating user name:	WinNT
#	Creation time:	15. 06. 2019 20:44

#	Modifying user name:	WinNT
#	Modification time:	15. 06. 2019 20:44

#	Program:	/corina/corina34_cracker 3.40 0067  02.08.2006

@<TRIPOS>MOLECULE
ASD03730361
  58   63    0    0    0
SMALL
NO_CHARGES


@<TRIPOS>ATOM
   1 C1            -0.0180     1.4742     0.0101 C.2     
   2 C2             0.0021    -0.0041     0.0020 C.ar    
   3 C3             1.2186    -0.6886    -0.0133 C.ar    
   4 C4             1.2303    -2.0679    -0.0203 C.ar    
   5 C5             0.0396    -2.7730    -0.0127 C.ar    
   6 C6            -1.1694    -2.1008     0.0024 C.ar    
   7 C7            -1.1950    -0.7213     0.0154 C.ar    
   8 O8             1.0263     2.0963     0.0035 O.2     
   9 N9            -1.1942     2.1322     0.0193 N.am    
  10 C10           -1.2141     3.5970     0.0274 C.3     
  11 C11           -2.6633     4.0874     0.0369 C.3     
  12 C12           -2.6841     5.6172     0.0453 C.3     
  13 C13            2.5426    -2.8085    -0.0368 C.3     
  14 O14           -0.8950    -3.3222     6.2568 O.3     
  15 C15           -0.9357    -3.5767     7.6734 C.3     
  16 O16           -0.0305    -4.6825     7.8486 O.3     
  17 C17            0.8672    -4.5864     6.8240 C.ar    
  18 C18            0.3345    -3.7506     5.8451 C.ar    
  19 C19            2.1164    -5.1528     6.6449 C.ar    
  20 C20            2.8483    -4.8954     5.4896 C.ar    
  21 C21            2.3022    -4.0656     4.5151 C.ar    
  22 C22            1.0594    -3.4944     4.6934 C.ar    
  23 O23            4.0884    -5.3328     5.1276 O.3     
  24 C24            3.3036    -4.0052     3.3929 C.3     
  25 C25            4.2536    -5.1693     3.7058 C.3     
  26 N26            2.9813    -3.0555     1.3390 N.am    
  27 C27            2.6574    -4.1565     2.0459 C.2     
  28 C28            4.0258    -2.6916     3.3422 C.ar    
  29 C29            4.7978    -1.9949     4.2449 C.ar    
  30 C30            5.3433    -0.7733     3.8926 C.ar    
  31 C31            5.1110    -0.2535     2.6322 C.ar    
  32 C32            4.3376    -0.9471     1.7248 C.ar    
  33 C33            3.7848    -2.1777     2.0707 C.ar    
  34 O34            1.9775    -5.0871     1.6680 O.2     
  35 H35            2.1485    -0.1394    -0.0199 H       
  36 H36            0.0543    -3.8529    -0.0190 H       
  37 H37           -2.0951    -2.6570     0.0083 H       
  38 H38           -2.1395    -0.1977     0.0314 H       
  39 H39           -2.0276     1.6358     0.0206 H       
  40 H40           -0.7010     3.9625     0.9169 H       
  41 H41           -0.7094     3.9721    -0.8630 H       
  42 H42           -3.1764     3.7219    -0.8527 H       
  43 H43           -3.1680     3.7122     0.9273 H       
  44 H44           -2.1710     5.9826     0.9349 H       
  45 H45           -2.1795     5.9923    -0.8450 H       
  46 H46           -3.7166     5.9665     0.0521 H       
  47 H47            2.4166    -3.7596    -0.5542 H       
  48 H48            3.2914    -2.2095    -0.5550 H       
  49 H49           -0.5884    -2.7057     8.2291 H       
  50 H50           -1.9432    -3.8536     7.9839 H       
  51 H51            2.5266    -5.7991     7.4068 H       
  52 H52            0.6506    -2.8459     3.9327 H       
  53 H53            5.2829    -4.9048     3.4636 H       
  54 H54            3.9491    -6.0710     3.1745 H       
  55 H55            4.9778    -2.4026     5.2287 H       
  56 H56            5.9496    -0.2270     4.6001 H       
  57 H57            5.5367     0.7002     2.3573 H       
  58 H58            4.1602    -0.5344     0.7427 H       
@<TRIPOS>BOND
   1    1    2 1
   2    1    8 2
   3    1    9 am
   4    2    3 ar
   5    2    7 ar
   6    3    4 ar
   7    3   35 1
   8    4    5 ar
   9    4   13 1
  10    5    6 ar
  11    5   36 1
  12    6    7 ar
  13    6   37 1
  14    7   38 1
  15    9   10 1
  16    9   39 1
  17   10   11 1
  18   10   40 1
  19   10   41 1
  20   11   12 1
  21   11   42 1
  22   11   43 1
  23   12   44 1
  24   12   45 1
  25   12   46 1
  26   13   26 1
  27   13   47 1
  28   13   48 1
  29   14   15 1
  30   14   18 1
  31   15   16 1
  32   15   49 1
  33   15   50 1
  34   16   17 1
  35   17   18 ar
  36   17   19 ar
  37   18   22 ar
  38   19   20 ar
  39   19   51 1
  40   20   21 ar
  41   20   23 1
  42   21   22 ar
  43   21   24 1
  44   22   52 1
  45   23   25 1
  46   24   25 1
  47   24   27 1
  48   24   28 1
  49   25   53 1
  50   25   54 1
  51   26   27 am
  52   26   33 1
  53   27   34 2
  54   28   29 ar
  55   28   33 ar
  56   29   30 ar
  57   29   55 1
  58   30   31 ar
  59   30   56 1
  60   31   32 ar
  61   31   57 1
  62   32   33 ar
  63   32   58 1

#	End of record

