#	Name: ASD01903232
#	Creating user name:	WinNT
#	Creation time:	15. 06. 2019 19:54

#	Modifying user name:	WinNT
#	Modification time:	15. 06. 2019 19:54

#	Program:	/corina/corina34_cracker 3.40 0067  02.08.2006

@<TRIPOS>MOLECULE
ASD01903232
  31   33    0    0    0
SMALL
NO_CHARGES


@<TRIPOS>ATOM
   1 S1            -0.0211     1.7049     0.0114 S.3     
   2 C2             0.0021    -0.0041     0.0020 C.2     
   3 N3             1.2221    -0.4387    -0.0120 N.2     
   4 C4             2.1845     0.4751    -0.0162 C.2     
   5 C5             1.7399     1.7439    -0.0052 C.2     
   6 N6            -1.1265    -0.8116     0.0089 N.pl3   
   7 C7            -2.3885    -0.2388     0.0239 C.ar    
   8 C8             3.6284     0.1262    -0.0314 C.2     
   9 C9             4.6496     0.8393    -0.6882 C.2     
  10 N10            5.7813     0.2232    -0.4695 N.2     
  11 N11            5.5296    -0.8989     0.3293 N.pl3   
  12 C12            4.2063    -0.9396     0.5930 C.2     
  13 N13           -3.4551    -1.0244     0.0303 N.ar    
  14 C14           -4.6738    -0.5100     0.0447 C.ar    
  15 C15           -4.8260     0.8676     0.0531 C.ar    
  16 C16           -3.6885     1.6601     0.0460 C.ar    
  17 N17           -2.4993     1.0815     0.0371 N.ar    
  18 C18           -5.8818    -1.4109     0.0513 C.3     
  19 C19            2.5979     2.9827    -0.0072 C.3     
  20 F20            2.8504     3.3730    -1.3267 F       
  21 F21            1.9310     4.0130     0.6644 F       
  22 F22            3.8089     2.7123     0.6390 F       
  23 H23           -1.0321    -1.7770     0.0031 H       
  24 H24            4.5201     1.7389    -1.2716 H       
  25 H25            6.1919    -1.5348     0.6422 H       
  26 H26            3.6965    -1.6853     1.1850 H       
  27 H27           -5.8094     1.3139     0.0645 H       
  28 H28           -3.7725     2.7368     0.0519 H       
  29 H29           -6.1633    -1.6336     1.0805 H       
  30 H30           -6.7099    -0.9119    -0.4520 H       
  31 H31           -5.6460    -2.3387    -0.4697 H       
@<TRIPOS>BOND
   1    1    2 1
   2    1    5 1
   3    2    3 2
   4    2    6 1
   5    3    4 1
   6    4    5 2
   7    4    8 1
   8    5   19 1
   9    6    7 1
  10    6   23 1
  11    7   13 ar
  12    7   17 ar
  13    8    9 1
  14    8   12 2
  15    9   10 2
  16    9   24 1
  17   10   11 1
  18   11   12 1
  19   11   25 1
  20   12   26 1
  21   13   14 ar
  22   14   15 ar
  23   14   18 1
  24   15   16 ar
  25   15   27 1
  26   16   17 ar
  27   16   28 1
  28   18   29 1
  29   18   30 1
  30   18   31 1
  31   19   20 1
  32   19   21 1
  33   19   22 1

#	End of record

