#	Name: ASD08158001
#	Creating user name:	WinNT
#	Creation time:	15. 06. 2019 21:17

#	Modifying user name:	WinNT
#	Modification time:	15. 06. 2019 21:17

#	Program:	/corina/corina34_cracker 3.40 0067  02.08.2006

@<TRIPOS>MOLECULE
ASD08158001
  77   83    0    0    0
SMALL
NO_CHARGES


@<TRIPOS>ATOM
   1 N1             1.8324     0.8994     0.0463 N.am    
   2 C2             1.9358    -0.2773    -0.6027 C.2     
   3 O3             2.8900    -0.4913    -1.3250 O.2     
   4 N4             0.9814    -1.2167    -0.4509 N.am    
   5 C5             2.2755    -4.1480    -2.2501 C.ar    
   6 C6             2.2622    -2.9823    -1.5128 C.ar    
   7 C7             1.0382    -2.3956    -1.1951 C.ar    
   8 C8            -0.1275    -3.0174    -1.6398 C.ar    
   9 C9            -0.0284    -4.1819    -2.3725 C.ar    
  10 N10            1.1497    -4.7065    -2.6529 N.ar    
  11 C11            2.8726     1.8292    -0.0232 C.ar    
  12 C12            2.5880     3.1901    -0.0239 C.ar    
  13 C13            3.6123     4.1093    -0.0921 C.ar    
  14 C14            4.9357     3.6734    -0.1604 C.ar    
  15 C15            5.2186     2.3073    -0.1595 C.ar    
  16 C16            4.1909     1.3922    -0.0859 C.ar    
  17 C17            6.0389     4.6595    -0.2342 C.ar    
  18 N18            5.7421     5.9494    -0.2338 N.ar    
  19 C19            6.7040     6.8662    -0.2988 C.ar    
  20 C20            8.0464     6.4424    -0.3683 C.ar    
  21 C21            8.3138     5.0585    -0.3663 C.ar    
  22 N22            7.2914     4.2163    -0.2930 N.ar    
  23 N23            8.0608     8.6456    -0.3967 N.2     
  24 N24            6.7258     8.2297    -0.3171 N.pl3   
  25 C25            8.8440     7.6050    -0.4273 C.2     
  26 N26            4.2725    11.6289    -0.2236 N.am    
  27 C27            4.4051    10.8993     1.0448 C.3     
  28 C28            5.6480    10.0067     0.9724 C.3     
  29 C29            5.5545     9.1080    -0.2628 C.3     
  30 C30            5.5080     9.9743    -1.5236 C.3     
  31 C31            4.2635    10.8666    -1.4796 C.3     
  32 C32            4.1556    12.9716    -0.2345 C.2     
  33 O33            3.9696    13.5570    -1.2834 O.2     
  34 C34            5.0292    14.8902     1.1023 C.ar    
  35 C35            4.2535    13.7324     1.0294 C.ar    
  36 C36            3.5693    13.3037     2.1729 C.ar    
  37 C37            3.6938    14.0518     3.3307 C.ar    
  38 C38            4.4825    15.1879     3.3210 C.ar    
  39 N39            5.1161    15.5681     2.2277 N.ar    
  40 N40            9.6114     4.5899    -0.4333 N.3     
  41 C41            9.6423     3.1201    -0.4170 C.3     
  42 C42           11.0910     2.6440    -0.5527 C.3     
  43 O43           11.8753     3.2137     0.4988 O.3     
  44 C44           11.8682     4.6438     0.5123 C.3     
  45 C45           10.4273     5.1402     0.6588 C.3     
  46 H46            1.0340     1.1023     0.5585 H       
  47 H47            0.2549    -1.0733     0.1757 H       
  48 H48            3.2193    -4.6071    -2.5047 H       
  49 H49            3.1872    -2.5306    -1.1860 H       
  50 H50           -1.0947    -2.5935    -1.4134 H       
  51 H51           -0.9262    -4.6707    -2.7208 H       
  52 H52            1.5633     3.5270     0.0286 H       
  53 H53            3.3907     5.1663    -0.0929 H       
  54 H54            6.2423     1.9673    -0.2127 H       
  55 H55            4.4096     0.3346    -0.0807 H       
  56 H56            9.9221     7.6283    -0.4870 H       
  57 H57            4.5122    11.6090     1.8651 H       
  58 H58            3.5210    10.2824     1.2056 H       
  59 H59            6.5397    10.6296     0.9026 H       
  60 H60            5.7047     9.3887     1.8685 H       
  61 H61            4.6495     8.5033    -0.2043 H       
  62 H62            6.4010    10.5975    -1.5700 H       
  63 H63            5.4650     9.3332    -2.4041 H       
  64 H64            3.3679    10.2470    -1.5246 H       
  65 H65            4.2772    11.5547    -2.3248 H       
  66 H66            5.5663    15.2307     0.2294 H       
  67 H67            2.9597    12.4125     2.1522 H       
  68 H68            3.1802    13.7517     4.2321 H       
  69 H69            4.5814    15.7736     4.2230 H       
  70 H70            9.2267     2.7578     0.5232 H       
  71 H71            9.0529     2.7345    -1.2489 H       
  72 H72           11.1247     1.5567    -0.4838 H       
  73 H73           11.4894     2.9608    -1.5166 H       
  74 H74           12.4639     5.0028     1.3515 H       
  75 H75           12.2892     5.0187    -0.4206 H       
  76 H76           10.4110     6.2291     0.6123 H       
  77 H77           10.0242     4.8101     1.6163 H       
@<TRIPOS>BOND
   1    1    2 am
   2    1   11 1
   3    1   46 1
   4    2    3 2
   5    2    4 am
   6    4    7 1
   7    4   47 1
   8    5    6 ar
   9    5   10 ar
  10    5   48 1
  11    6    7 ar
  12    6   49 1
  13    7    8 ar
  14    8    9 ar
  15    8   50 1
  16    9   10 ar
  17    9   51 1
  18   11   12 ar
  19   11   16 ar
  20   12   13 ar
  21   12   52 1
  22   13   14 ar
  23   13   53 1
  24   14   15 ar
  25   14   17 1
  26   15   16 ar
  27   15   54 1
  28   16   55 1
  29   17   18 ar
  30   17   22 ar
  31   18   19 ar
  32   19   20 ar
  33   19   24 1
  34   20   21 ar
  35   20   25 1
  36   21   22 ar
  37   21   40 1
  38   23   24 1
  39   23   25 2
  40   24   29 1
  41   25   56 1
  42   26   27 1
  43   26   31 1
  44   26   32 am
  45   27   28 1
  46   27   57 1
  47   27   58 1
  48   28   29 1
  49   28   59 1
  50   28   60 1
  51   29   30 1
  52   29   61 1
  53   30   31 1
  54   30   62 1
  55   30   63 1
  56   31   64 1
  57   31   65 1
  58   32   33 2
  59   32   35 1
  60   34   35 ar
  61   34   39 ar
  62   34   66 1
  63   35   36 ar
  64   36   37 ar
  65   36   67 1
  66   37   38 ar
  67   37   68 1
  68   38   39 ar
  69   38   69 1
  70   40   41 1
  71   40   45 1
  72   41   42 1
  73   41   70 1
  74   41   71 1
  75   42   43 1
  76   42   72 1
  77   42   73 1
  78   43   44 1
  79   44   45 1
  80   44   74 1
  81   44   75 1
  82   45   76 1
  83   45   77 1

#	End of record

