#	Name: ASD01915045
#	Creating user name:	WinNT
#	Creation time:	15. 06. 2019 20:04

#	Modifying user name:	WinNT
#	Modification time:	15. 06. 2019 20:04

#	Program:	/corina/corina34_cracker 3.40 0067  02.08.2006

@<TRIPOS>MOLECULE
ASD01915045
  35   37    0    0    0
SMALL
NO_CHARGES


@<TRIPOS>ATOM
   1 C1            -0.0180     1.4737     0.0101 C.2     
   2 C2             0.0021    -0.0041     0.0020 C.ar    
   3 C3             1.2188    -0.6888    -0.0133 C.ar    
   4 C4             1.2304    -2.0680    -0.0203 C.ar    
   5 C5             0.0396    -2.7731    -0.0127 C.ar    
   6 C6            -1.1694    -2.1009     0.0024 C.ar    
   7 C7            -1.1952    -0.7215     0.0154 C.ar    
   8 O8             1.0263     2.0957     0.0035 O.2     
   9 N9            -1.1942     2.1316     0.0193 N.am    
  10 C10           -2.4611    -2.8771     0.0101 C.3     
  11 F11           -2.1815    -4.2478    -0.0003 F       
  12 F12           -3.1898    -2.5585     1.1611 F       
  13 F13           -3.2112    -2.5455    -1.1233 F       
  14 C14            2.5165     0.0774    -0.0226 C.3     
  15 F15            3.5885    -0.8213    -0.0374 F       
  16 F16            2.5714     0.8877    -1.1617 F       
  17 F17            2.5941     0.8770     1.1227 F       
  18 C18           -1.2130     3.5150     0.0269 C.2     
  19 N19           -0.1061     4.3141     0.0260 N.pl3   
  20 C20           -0.5471     5.6263     0.0352 C.ar    
  21 C21           -1.9509     5.5662     0.0416 C.ar    
  22 N22           -2.2945     4.2520     0.0304 N.2     
  23 C23           -2.6898     6.7518     0.0519 C.ar    
  24 C24           -2.0371     7.9643     0.0558 C.ar    
  25 C25           -0.6513     8.0178     0.0495 C.ar    
  26 C26            0.0931     6.8562     0.0393 C.ar    
  27 H27            2.1708    -2.5989    -0.0321 H       
  28 H28            0.0543    -3.8529    -0.0190 H       
  29 H29           -2.1397    -0.1979     0.0318 H       
  30 H30           -2.0276     1.6352     0.0206 H       
  31 H31            0.8175     4.0176     0.0203 H       
  32 H32           -3.7692     6.7175     0.0565 H       
  33 H33           -2.6088     8.8805     0.0635 H       
  34 H34           -0.1515     8.9752     0.0527 H       
  35 H35            1.1720     6.9047     0.0348 H       
@<TRIPOS>BOND
   1    1    2 1
   2    1    8 2
   3    1    9 am
   4    2    3 ar
   5    2    7 ar
   6    3    4 ar
   7    3   14 1
   8    4    5 ar
   9    4   27 1
  10    5    6 ar
  11    5   28 1
  12    6    7 ar
  13    6   10 1
  14    7   29 1
  15    9   18 1
  16    9   30 1
  17   10   11 1
  18   10   12 1
  19   10   13 1
  20   14   15 1
  21   14   16 1
  22   14   17 1
  23   18   19 1
  24   18   22 2
  25   19   20 1
  26   19   31 1
  27   20   21 ar
  28   20   26 ar
  29   21   22 1
  30   21   23 ar
  31   23   24 ar
  32   23   32 1
  33   24   25 ar
  34   24   33 1
  35   25   26 ar
  36   25   34 1
  37   26   35 1

#	End of record

