#	Name: ASD01913824
#	Creating user name:	WinNT
#	Creation time:	15. 06. 2019 20:02

#	Modifying user name:	WinNT
#	Modification time:	15. 06. 2019 20:02

#	Program:	/corina/corina34_cracker 3.40 0067  02.08.2006

@<TRIPOS>MOLECULE
ASD01913824
  42   44    0    0    0
SMALL
NO_CHARGES


@<TRIPOS>ATOM
   1 C1            -0.0230     1.4277    -0.0311 C.2     
   2 C2            -0.0020    -0.0041    -0.0268 C.1     
   3 C3             0.0153    -1.1780    -0.0232 C.1     
   4 C4             0.0364    -2.6098    -0.0189 C.ar    
   5 C5            -1.1337    -3.3382     0.2413 C.ar    
   6 C6             0.1560    -5.3344    -0.0290 C.ar    
   7 N7             1.2426    -4.6189    -0.2765 N.ar    
   8 C8             1.2207    -3.3020    -0.2794 C.ar    
   9 C9            -1.0629    -4.7171     0.2340 C.ar    
  10 N10            0.2332    -6.7257    -0.0385 N.am    
  11 C11           -0.8138    -7.5612    -0.0338 C.2     
  12 N12           -0.4747    -8.8569    -0.0451 N.am    
  13 C13            0.9912    -8.9725    -0.0597 C.3     
  14 C14            1.4769    -7.5100    -0.0616 C.3     
  15 O15           -1.9676    -7.1780    -0.0201 O.2     
  16 C16           -1.4148    -9.9805    -0.0432 C.3     
  17 C17            1.4846    -9.7061     1.1890 C.3     
  18 C18            1.4608    -9.6904    -1.3266 C.3     
  19 C19            1.0751     2.2804    -0.2764 C.2     
  20 N20            0.6576     3.5147    -0.1929 N.2     
  21 N21           -0.7096     3.5106     0.1059 N.pl3   
  22 C22           -1.1206     2.2298     0.1976 C.2     
  23 C23           -1.5521     4.6960     0.2827 C.3     
  24 H24           -2.0667    -2.8331     0.4428 H       
  25 H25            2.1272    -2.7523    -0.4856 H       
  26 H26           -1.9440    -5.3100     0.4306 H       
  27 H27            2.0523    -7.2990    -0.9630 H       
  28 H28            2.0698    -7.3026     0.8292 H       
  29 H29           -2.4360    -9.5997    -0.0316 H       
  30 H30           -1.2620   -10.5836    -0.9383 H       
  31 H31           -1.2457   -10.5942     0.8416 H       
  32 H32            1.0719   -10.7148     1.2046 H       
  33 H33            2.5732    -9.7592     1.1729 H       
  34 H34            1.1602    -9.1670     2.0791 H       
  35 H35            1.1196    -9.1402    -2.2036 H       
  36 H36            2.5494    -9.7435    -1.3319 H       
  37 H37            1.0477   -10.6989    -1.3471 H       
  38 H38            2.0851     1.9663    -0.4947 H       
  39 H39           -2.1234     1.8941     0.4172 H       
  40 H40           -1.9808     4.9835    -0.6774 H       
  41 H41           -2.3539     4.4704     0.9857 H       
  42 H42           -0.9483     5.5162     0.6712 H       
@<TRIPOS>BOND
   1    1    2 1
   2    1   19 1
   3    1   22 2
   4    2    3 3
   5    3    4 1
   6    4    5 ar
   7    4    8 ar
   8    5    9 ar
   9    5   24 1
  10    6    7 ar
  11    6   10 1
  12    6    9 ar
  13    7    8 ar
  14    8   25 1
  15    9   26 1
  16   10   11 am
  17   10   14 1
  18   11   12 am
  19   11   15 2
  20   12   13 1
  21   12   16 1
  22   13   14 1
  23   13   17 1
  24   13   18 1
  25   14   27 1
  26   14   28 1
  27   16   29 1
  28   16   30 1
  29   16   31 1
  30   17   32 1
  31   17   33 1
  32   17   34 1
  33   18   35 1
  34   18   36 1
  35   18   37 1
  36   19   20 2
  37   19   38 1
  38   20   21 1
  39   21   22 1
  40   21   23 1
  41   22   39 1
  42   23   40 1
  43   23   41 1
  44   23   42 1

#	End of record

