#	Name: ASD05430654
#	Creating user name:	WinNT
#	Creation time:	15. 06. 2019 21:00

#	Modifying user name:	WinNT
#	Modification time:	15. 06. 2019 21:00

#	Program:	/corina/corina34_cracker 3.40 0067  02.08.2006

@<TRIPOS>MOLECULE
ASD05430654
  27   27    0    0    0
SMALL
NO_CHARGES


@<TRIPOS>ATOM
   1 C1            -0.0167     1.3781     0.0096 C.ar    
   2 C2             0.0021    -0.0041     0.0020 C.ar    
   3 C3            -1.1855    -0.7115     0.0095 C.ar    
   4 C4            -2.3919    -0.0367     0.0251 C.ar    
   5 C5            -2.4106     1.3455     0.0336 C.ar    
   6 C6            -1.2230     2.0529     0.0305 C.ar    
   7 C7             1.2780     2.1493     0.0014 C.3     
   8 C8             1.3352     3.0367    -1.2437 C.3     
   9 C9             1.3591     3.0232     1.2546 C.3     
  10 C10            2.6497     3.8196    -1.2520 C.3     
  11 C11            1.2542     2.1627    -2.4969 C.3     
  12 H12            0.9446    -0.5313    -0.0101 H       
  13 H13           -1.1709    -1.7913     0.0029 H       
  14 H14           -3.3198    -0.5893     0.0302 H       
  15 H15           -3.3531     1.8728     0.0454 H       
  16 H16           -1.2376     3.1328     0.0372 H       
  17 H17            2.1160     1.4524    -0.0103 H       
  18 H18            0.4972     3.7336    -1.2320 H       
  19 H19            1.3183     2.3911     2.1417 H       
  20 H20            2.2955     3.5810     1.2487 H       
  21 H21            0.5211     3.7202     1.2664 H       
  22 H22            2.6904     4.4518    -2.1391 H       
  23 H23            2.7074     4.4422    -0.3592 H       
  24 H24            3.4877     3.1227    -1.2638 H       
  25 H25            0.3177     1.6049    -2.4910 H       
  26 H26            1.2949     2.7949    -3.3840 H       
  27 H27            2.0922     1.4658    -2.5087 H       
@<TRIPOS>BOND
   1    1    2 ar
   2    1    7 1
   3    1    6 ar
   4    2    3 ar
   5    2   12 1
   6    3    4 ar
   7    3   13 1
   8    4    5 ar
   9    4   14 1
  10    5    6 ar
  11    5   15 1
  12    6   16 1
  13    7    8 1
  14    7    9 1
  15    7   17 1
  16    8   10 1
  17    8   11 1
  18    8   18 1
  19    9   19 1
  20    9   20 1
  21    9   21 1
  22   10   22 1
  23   10   23 1
  24   10   24 1
  25   11   25 1
  26   11   26 1
  27   11   27 1

#	End of record

