#	Name: ASD01918153
#	Creating user name:	WinNT
#	Creation time:	15. 06. 2019 20:10

#	Modifying user name:	WinNT
#	Modification time:	15. 06. 2019 20:10

#	Program:	/corina/corina34_cracker 3.40 0067  02.08.2006

@<TRIPOS>MOLECULE
ASD01918153
  40   43    0    0    0
SMALL
NO_CHARGES


@<TRIPOS>ATOM
   1 N1             4.8223    -0.4074    -2.1412 N.ar    
   2 C2             5.2895     0.2905    -3.1591 C.ar    
   3 C3             5.1754     1.6735    -3.1845 C.ar    
   4 C4             4.5617     2.3200    -2.1229 C.ar    
   5 C5             4.0816     1.5500    -1.0675 C.ar    
   6 C6             4.2325     0.1728    -1.1136 C.ar    
   7 O7             3.4732     2.1408    -0.0052 O.3     
   8 C8             3.4528     3.4998     0.0444 C.2     
   9 N9             2.2006     5.5116    -0.0211 N.pl3   
  10 C10            2.2695     4.1558    -0.0650 C.2     
  11 C11            4.6520     4.2023     0.2133 C.2     
  12 C12            4.6230     5.5916     0.2635 C.2     
  13 C13            3.3300     6.2636     0.1365 C.2     
  14 C14            5.8625     6.3667     0.4405 C.2     
  15 N15            5.8147     7.7128     0.4868 N.am    
  16 O16            6.9294     5.7921     0.5449 O.2     
  17 N17            1.1370     6.4219    -0.1073 N.2     
  18 C18            1.6507     7.6250    -0.0089 C.2     
  19 N19            2.9659     7.5362     0.1430 N.2     
  20 C20            6.9701     8.4418     0.7595 C.ar    
  21 F21            5.6568     2.3806    -4.2302 F       
  22 F22            5.8864    -0.3489    -4.1888 F       
  23 N23            8.1315     7.8151     0.8649 N.ar    
  24 C24            6.8938     9.8215     0.9127 C.ar    
  25 C25            8.0493    10.5336     1.1829 C.ar    
  26 C26            9.2457     9.8382     1.2909 C.ar    
  27 C27            9.2489     8.4675     1.1216 C.ar    
  28 C28           10.5454     7.7073     1.2323 C.3     
  29 H29            4.4590     3.3951    -2.1148 H       
  30 H30            3.8629    -0.4322    -0.2989 H       
  31 H31            1.3608     3.5858    -0.1904 H       
  32 H32            5.5882     3.6716     0.3039 H       
  33 H33            4.9759     8.1740     0.3302 H       
  34 H34            1.0883     8.5466    -0.0398 H       
  35 H35            5.9458    10.3307     0.8218 H       
  36 H36            8.0208    11.6061     1.3067 H       
  37 H37           10.1654    10.3641     1.5011 H       
  38 H38           11.0169     7.6484     0.2514 H       
  39 H39           11.2108     8.2228     1.9249 H       
  40 H40           10.3462     6.7010     1.6008 H       
@<TRIPOS>BOND
   1    1    2 ar
   2    1    6 ar
   3    2    3 ar
   4    2   22 1
   5    3    4 ar
   6    3   21 1
   7    4    5 ar
   8    4   29 1
   9    5    6 ar
  10    5    7 1
  11    6   30 1
  12    7    8 1
  13    8   11 1
  14    8   10 2
  15    9   10 1
  16    9   17 1
  17    9   13 1
  18   10   31 1
  19   11   12 2
  20   11   32 1
  21   12   13 1
  22   12   14 1
  23   13   19 2
  24   14   15 am
  25   14   16 2
  26   15   20 1
  27   15   33 1
  28   17   18 2
  29   18   19 1
  30   18   34 1
  31   20   24 ar
  32   20   23 ar
  33   23   27 ar
  34   24   25 ar
  35   24   35 1
  36   25   26 ar
  37   25   36 1
  38   26   27 ar
  39   26   37 1
  40   27   28 1
  41   28   38 1
  42   28   39 1
  43   28   40 1

#	End of record

