#	Name: ASD03240629
#	Creating user name:	WinNT
#	Creation time:	15. 06. 2019 20:35

#	Modifying user name:	WinNT
#	Modification time:	15. 06. 2019 20:35

#	Program:	/corina/corina34_cracker 3.40 0067  02.08.2006

@<TRIPOS>MOLECULE
ASD03240629
  62   69    0    0    0
SMALL
NO_CHARGES


@<TRIPOS>ATOM
   1 C1            -0.0166     1.3755     0.0096 C.ar    
   2 C2             0.0021    -0.0041     0.0020 C.ar    
   3 N3             1.1422    -0.6683    -0.0058 N.ar    
   4 C4             2.3145    -0.0481    -0.0057 C.ar    
   5 C5             2.3702     1.3442    -0.0124 C.ar    
   6 C6             1.1860     2.0698     0.0018 C.ar    
   7 N7             3.4820    -0.8058     0.0220 N.pl3   
   8 C8             4.3594    -0.7189     1.0995 C.ar    
   9 C9             4.9950     0.4897     1.4032 C.ar    
  10 C10            4.7629     1.6840     0.5615 C.2     
  11 N11            3.5939     2.0276    -0.0512 N.pl3   
  12 C12            4.6059    -1.8384     1.8829 C.ar    
  13 C13            5.4659    -1.7527     2.9612 C.ar    
  14 C14            6.0864    -0.5543     3.2697 C.ar    
  15 C15            5.8561     0.5665     2.4977 C.ar    
  16 N16            5.6741     2.5950     0.2843 N.2     
  17 C17            5.1436     3.5405    -0.5064 C.2     
  18 C18            3.8223     3.2042    -0.7371 C.2     
  19 C19            2.8489     3.9539    -1.5542 C.ar    
  20 C20            2.7491     5.3419    -1.4295 C.ar    
  21 C21            2.0266     3.2797    -2.4606 C.ar    
  22 C22            1.1194     3.9870    -3.2214 C.ar    
  23 C23            1.0228     5.3611    -3.0890 C.ar    
  24 C24            1.8373     6.0360    -2.1968 C.ar    
  25 C25            5.8474     4.7307    -1.0373 C.ar    
  26 C26            0.0293     6.1269    -3.9243 C.3     
  27 C27            6.8199     5.3772    -0.2712 C.ar    
  28 N28           -1.0295     5.2721    -4.4778 N.3     
  29 C29           -0.5001     7.3984    -3.2404 C.3     
  30 C30           -0.4048     8.0824    -4.6144 C.3     
  31 C31            0.6826     7.0528    -4.9640 C.3     
  32 C32            7.4492     6.4866    -0.8151 C.ar    
  33 C33            7.0952     6.9232    -2.1049 C.ar    
  34 N34            6.1615     6.2742    -2.7989 N.ar    
  35 C35            5.5506     5.2177    -2.3142 C.ar    
  36 N36            8.4274     7.3535    -0.3705 N.pl3   
  37 C37            8.6389     8.2621    -1.3592 C.2     
  38 N38            7.8608     8.0108    -2.3725 N.2     
  39 H39           -0.9556     1.9091     0.0170 H       
  40 H40           -0.9306    -0.5486     0.0028 H       
  41 H41            1.2002     3.1497     0.0064 H       
  42 H42            3.6865    -1.4000    -0.7169 H       
  43 H43            4.1250    -2.7769     1.6496 H       
  44 H44            5.6548    -2.6262     3.5675 H       
  45 H45            6.7528    -0.4961     4.1175 H       
  46 H46            6.3416     1.5002     2.7403 H       
  47 H47            3.3842     5.8699    -0.7335 H       
  48 H48            2.1015     2.2074    -2.5654 H       
  49 H49            0.4831     3.4673    -3.9224 H       
  50 H50            1.7565     7.1085    -2.0987 H       
  51 H51            7.0742     5.0232     0.7170 H       
  52 H52           -0.6381     4.4638    -4.9379 H       
  53 H53           -1.6848     4.9983    -3.7611 H       
  54 H54           -1.5208     7.3025    -2.8703 H       
  55 H55            0.1831     7.8119    -2.4985 H       
  56 H56           -1.3090     7.9836    -5.2150 H       
  57 H57           -0.0367     9.1073    -4.5674 H       
  58 H58            1.6891     7.3717    -4.6933 H       
  59 H59            0.6167     6.6777    -5.9853 H       
  60 H60            4.7993     4.7203    -2.9096 H       
  61 H61            8.8790     7.3206     0.4873 H       
  62 H62            9.3489     9.0744    -1.3111 H       
@<TRIPOS>BOND
   1    1    2 ar
   2    1    6 ar
   3    1   39 1
   4    2    3 ar
   5    2   40 1
   6    3    4 ar
   7    4    5 ar
   8    4    7 1
   9    5    6 ar
  10    5   11 1
  11    6   41 1
  12    7    8 1
  13    7   42 1
  14    8    9 ar
  15    8   12 ar
  16    9   10 1
  17    9   15 ar
  18   10   11 1
  19   10   16 2
  20   11   18 1
  21   12   13 ar
  22   12   43 1
  23   13   14 ar
  24   13   44 1
  25   14   15 ar
  26   14   45 1
  27   15   46 1
  28   16   17 1
  29   17   18 2
  30   17   25 1
  31   18   19 1
  32   19   20 ar
  33   19   21 ar
  34   20   24 ar
  35   20   47 1
  36   21   22 ar
  37   21   48 1
  38   22   23 ar
  39   22   49 1
  40   23   24 ar
  41   23   26 1
  42   24   50 1
  43   25   27 ar
  44   25   35 ar
  45   26   29 1
  46   26   28 1
  47   26   31 1
  48   27   32 ar
  49   27   51 1
  50   28   52 1
  51   28   53 1
  52   29   30 1
  53   29   54 1
  54   29   55 1
  55   30   31 1
  56   30   56 1
  57   30   57 1
  58   31   58 1
  59   31   59 1
  60   32   33 ar
  61   32   36 1
  62   33   34 ar
  63   33   38 1
  64   34   35 ar
  65   35   60 1
  66   36   37 1
  67   36   61 1
  68   37   38 2
  69   37   62 1

#	End of record

