#	Name: ASD02030280
#	Creating user name:	WinNT
#	Creation time:	15. 06. 2019 20:15

#	Modifying user name:	WinNT
#	Modification time:	15. 06. 2019 20:15

#	Program:	/corina/corina34_cracker 3.40 0067  02.08.2006

@<TRIPOS>MOLECULE
ASD02030280
  52   56    0    0    0
SMALL
NO_CHARGES


@<TRIPOS>ATOM
   1 N1            -1.7525     1.3239    -2.1542 N.am    
   2 C2            -1.7050    -0.1419    -2.0584 C.3     
   3 C3            -1.5662    -0.5323    -0.5818 C.3     
   4 N4            -2.5803     0.1957     0.1938 N.am    
   5 C5            -2.6278     1.6615     0.0980 C.3     
   6 C6            -2.7630     2.0523    -1.3743 C.3     
   7 C7            -0.8814     1.9886    -2.9389 C.2     
   8 C8             0.2080     1.2565    -3.6193 C.2     
   9 N9             1.1894     1.7960    -4.3096 N.2     
  10 N10            0.3737    -0.0788    -3.6367 N.2     
  11 C11            1.4484    -0.3282    -4.3406 C.2     
  12 N12            1.9478     0.8543    -4.7549 N.pl3   
  13 C13            3.0973     1.0292    -5.5373 C.ar    
  14 O14           -0.9913     3.1901    -3.0871 O.2     
  15 C15           -3.4514    -0.4690     0.9785 C.2     
  16 C16           -3.4792    -1.9369     0.9651 C.2     
  17 O17           -4.2148     0.1474     1.6980 O.2     
  18 C18            3.5060     2.3060    -5.8971 C.ar    
  19 C19            4.6404     2.4751    -6.6690 C.ar    
  20 C20            5.3672     1.3728    -7.0830 C.ar    
  21 C21            4.9614     0.0999    -6.7260 C.ar    
  22 C22            3.8328    -0.0744    -5.9495 C.ar    
  23 C23           -2.5446     3.5588    -1.5279 C.3     
  24 Cl24           5.1529     4.0713    -7.1198 Cl      
  25 S25           -2.1010    -2.9644     1.3171 S.3     
  26 C26           -3.0572    -4.4201     1.0643 C.ar    
  27 C27           -4.3694    -4.0670     0.7267 C.ar    
  28 C28           -4.5606    -2.6752     0.6883 C.2     
  29 C29           -2.6997    -5.7698     1.1514 C.ar    
  30 C30           -3.6321    -6.7487     0.9062 C.ar    
  31 C31           -4.9357    -6.4035     0.5708 C.ar    
  32 C32           -5.3066    -5.0988     0.4810 C.ar    
  33 Cl33          -6.0939    -1.9614     0.2968 Cl      
  34 H34           -2.6242    -0.5649    -2.4638 H       
  35 H35           -0.8485    -0.5175    -2.6182 H       
  36 H36           -1.7216    -1.6054    -0.4709 H       
  37 H37           -0.5715    -0.2654    -0.2248 H       
  38 H38           -3.4843     2.0371     0.6578 H       
  39 H39           -1.7086     2.0845     0.5034 H       
  40 H40           -3.7569     1.7857    -1.7337 H       
  41 H41            1.8622    -1.3037    -4.5492 H       
  42 H42            2.9383     3.1663    -5.5746 H       
  43 H43            6.2529     1.5068    -7.6863 H       
  44 H44            5.5303    -0.7586    -7.0511 H       
  45 H45            3.5169    -1.0689    -5.6709 H       
  46 H46           -1.5002     3.7969    -1.3259 H       
  47 H47           -2.7960     3.8606    -2.5446 H       
  48 H48           -3.1818     4.0921    -0.8225 H       
  49 H49           -1.6878    -6.0431     1.4118 H       
  50 H50           -3.3511    -7.7893     0.9740 H       
  51 H51           -5.6618    -7.1798     0.3798 H       
  52 H52           -6.3239    -4.8477     0.2196 H       
@<TRIPOS>BOND
   1    1    2 1
   2    1    7 am
   3    1    6 1
   4    2    3 1
   5    2   34 1
   6    2   35 1
   7    3    4 1
   8    3   36 1
   9    3   37 1
  10    4    5 1
  11    4   15 am
  12    5    6 1
  13    5   38 1
  14    5   39 1
  15    6   23 1
  16    6   40 1
  17    7    8 1
  18    7   14 2
  19    8    9 2
  20    8   10 1
  21    9   12 1
  22   10   11 2
  23   11   12 1
  24   11   41 1
  25   12   13 1
  26   13   18 ar
  27   13   22 ar
  28   15   16 1
  29   15   17 2
  30   16   25 1
  31   16   28 2
  32   18   19 ar
  33   18   42 1
  34   19   20 ar
  35   19   24 1
  36   20   21 ar
  37   20   43 1
  38   21   22 ar
  39   21   44 1
  40   22   45 1
  41   23   46 1
  42   23   47 1
  43   23   48 1
  44   25   26 1
  45   26   27 ar
  46   26   29 ar
  47   27   28 1
  48   27   32 ar
  49   28   33 1
  50   29   30 ar
  51   29   49 1
  52   30   31 ar
  53   30   50 1
  54   31   32 ar
  55   31   51 1
  56   32   52 1

#	End of record

