#	Name: ASD01917636
#	Creating user name:	WinNT
#	Creation time:	15. 06. 2019 20:09

#	Modifying user name:	WinNT
#	Modification time:	15. 06. 2019 20:09

#	Program:	/corina/corina34_cracker 3.40 0067  02.08.2006

@<TRIPOS>MOLECULE
ASD01917636
  46   48    0    0    0
SMALL
NO_CHARGES


@<TRIPOS>ATOM
   1 C1            -0.0188     1.5328     0.0105 C.3     
   2 C2             0.0021    -0.0041     0.0020 C.3     
   3 C3             0.7706    -0.5593     1.1975 C.3     
   4 C4             2.1927     0.0214     1.2682 C.3     
   5 C5             1.4256     2.0039    -0.0008 C.3     
   6 C6             1.6202     3.5226     0.1305 C.3     
   7 C7             2.0625     1.5286     1.3334 C.3     
   8 N8             3.2841     2.3094     1.4412 N.am    
   9 C9             3.0330     3.6071     0.7706 C.3     
  10 C10            4.4298     1.9253     2.0381 C.2     
  11 O11            5.4881     2.7573     2.0624 O.3     
  12 O12            4.5076     0.8281     2.5545 O.2     
  13 C13            6.6889     2.2772     2.7225 C.3     
  14 C14           -0.6944     2.0179     1.2250 C.1     
  15 C15           -1.2332     2.4047     2.1936 C.1     
  16 C16           -1.8905     2.8766     3.3751 C.ar    
  17 C17           -3.1615     3.7892     5.6597 C.ar    
  18 C18           -3.0223     2.4293     5.4454 C.ar    
  19 C19           -2.3901     1.9682     4.3093 C.ar    
  20 C20           -2.0291     4.2466     3.5999 C.ar    
  21 C21           -2.6635     4.6948     4.7405 C.ar    
  22 C22           -2.8200     6.1741     4.9817 C.3     
  23 O23           -0.6970     2.0163    -1.1507 O.3     
  24 H24           -1.0226    -0.3744     0.0341 H       
  25 H25            0.4756    -0.3489    -0.9172 H       
  26 H26            0.2363    -0.3068     2.1134 H       
  27 H27            0.8322    -1.6440     1.1093 H       
  28 H28            2.6991    -0.3458     2.1609 H       
  29 H29            2.7543    -0.2640     0.3786 H       
  30 H30            1.9614     1.6018    -0.8606 H       
  31 H31            1.6057     4.0036    -0.8476 H       
  32 H32            0.8673     3.9568     0.7882 H       
  33 H33            1.4033     1.7965     2.1591 H       
  34 H34            3.7818     3.7765    -0.0031 H       
  35 H35            3.0615     4.4148     1.5021 H       
  36 H36            6.4661     2.0563     3.7663 H       
  37 H37            7.0392     1.3722     2.2263 H       
  38 H38            7.4630     3.0429     2.6704 H       
  39 H39           -3.6576     4.1451     6.5506 H       
  40 H40           -3.4134     1.7273     6.1670 H       
  41 H41           -2.2824     0.9066     4.1430 H       
  42 H42           -1.6403     4.9547     2.8831 H       
  43 H43           -1.9599     6.5443     5.5396 H       
  44 H44           -2.8837     6.6935     4.0255 H       
  45 H45           -3.7297     6.3546     5.5545 H       
  46 H46           -1.6157     1.7226    -1.2204 H       
@<TRIPOS>BOND
   1    1    2 1
   2    1    5 1
   3    1   14 1
   4    1   23 1
   5    2    3 1
   6    2   24 1
   7    2   25 1
   8    3    4 1
   9    3   26 1
  10    3   27 1
  11    4    7 1
  12    4   28 1
  13    4   29 1
  14    5    7 1
  15    5    6 1
  16    5   30 1
  17    6    9 1
  18    6   31 1
  19    6   32 1
  20    7    8 1
  21    7   33 1
  22    8    9 1
  23    8   10 am
  24    9   34 1
  25    9   35 1
  26   10   11 1
  27   10   12 2
  28   11   13 1
  29   13   36 1
  30   13   37 1
  31   13   38 1
  32   14   15 3
  33   15   16 1
  34   16   20 ar
  35   16   19 ar
  36   17   18 ar
  37   17   21 ar
  38   17   39 1
  39   18   19 ar
  40   18   40 1
  41   19   41 1
  42   20   21 ar
  43   20   42 1
  44   21   22 1
  45   22   43 1
  46   22   44 1
  47   22   45 1
  48   23   46 1

#	End of record

