#	Name: ASD02500510
#	Creating user name:	WinNT
#	Creation time:	15. 06. 2019 20:22

#	Modifying user name:	WinNT
#	Modification time:	15. 06. 2019 20:22

#	Program:	/corina/corina34_cracker 3.40 0067  02.08.2006

@<TRIPOS>MOLECULE
ASD02500510
  70   74    0    0    0
SMALL
NO_CHARGES


@<TRIPOS>ATOM
   1 C1            -0.8469     3.4464    -3.9363 C.2     
   2 C2            -0.8414     1.9948    -4.3410 C.3     
   3 O3            -1.1953     4.2923    -4.7256 O.2     
   4 O4            -0.4700     3.7993    -2.6969 O.3     
   5 C5            -0.4058     5.1298    -2.4267 C.ar    
   6 C6            -1.5664     5.8896    -2.3963 C.ar    
   7 C7            -1.4985     7.2415    -2.1216 C.ar    
   8 C8            -0.2751     7.8379    -1.8769 C.ar    
   9 C9             0.8828     7.0832    -1.9070 C.ar    
  10 C10            0.8195     5.7293    -2.1753 C.ar    
  11 C11           -2.7587     8.0674    -2.0890 C.3     
  12 N12           -3.3085     8.0681    -0.7268 N.3     
  13 C13           -2.4432     8.7389     0.1688 C.3     
  14 C14           -2.8866     8.4775     1.6284 C.3     
  15 N15           -4.1378     9.1602     1.8882 N.am    
  16 C16           -5.4505     8.5270     1.6539 C.3     
  17 C17           -5.4605     7.7323     0.3372 C.3     
  18 C18           -4.7052     8.5002    -0.7257 C.3     
  19 C19           -4.1018    10.4214     2.3622 C.2     
  20 C20           -5.3566    11.1724     2.5566 C.ar    
  21 C21           -6.4475    10.5632     3.1835 C.ar    
  22 C22           -7.6166    11.2663     3.3634 C.ar    
  23 C23           -7.7137    12.5830     2.9218 C.ar    
  24 C24           -6.6292    13.1924     2.2967 C.ar    
  25 C25           -5.4553    12.4965     2.1195 C.ar    
  26 O26           -3.0351    10.9402     2.6295 O.2     
  27 S27           -8.8514    14.8453     3.6742 S.o2    
  28 O28           -7.9032    15.5382     2.8741 O.2     
  29 O29          -10.2031    15.2612     3.8128 O.2     
  30 N30           -8.8964    13.2909     3.1050 N.am    
  31 N31          -10.0583    13.5445     6.0980 N.ar    
  32 C32          -10.7148    12.9323     7.0532 C.ar    
  33 C33          -10.2207    12.8622     8.3541 C.ar    
  34 C34           -9.0218    13.4405     8.6600 C.ar    
  35 C35           -8.3193    14.0966     7.6315 C.ar    
  36 C36           -7.0815    14.7144     7.8704 C.ar    
  37 C37           -6.4331    15.3394     6.8489 C.ar    
  38 C38           -6.9814    15.3733     5.5687 C.ar    
  39 C39           -8.1797    14.7855     5.3020 C.ar    
  40 C40           -8.8796    14.1310     6.3303 C.ar    
  41 H41           -1.1800     1.9040    -5.3730 H       
  42 H42            0.1698     1.5972    -4.2540 H       
  43 H43           -1.5100     1.4332    -3.6885 H       
  44 H44           -2.5221     5.4243    -2.5877 H       
  45 H45           -0.2241     8.8952    -1.6623 H       
  46 H46            1.8371     7.5515    -1.7163 H       
  47 H47            1.7238     5.1392    -2.1936 H       
  48 H48           -2.5307     9.0901    -2.3893 H       
  49 H49           -3.4901     7.6414    -2.7758 H       
  50 H50           -1.4253     8.3751     0.0292 H       
  51 H51           -2.4739     9.8098    -0.0324 H       
  52 H52           -3.0194     7.4064     1.7808 H       
  53 H53           -2.1224     8.8483     2.3115 H       
  54 H54           -5.6735     7.8518     2.4801 H       
  55 H55           -6.2171     9.3006     1.6097 H       
  56 H56           -4.9831     6.7649     0.4936 H       
  57 H57           -6.4899     7.5802     0.0130 H       
  58 H58           -4.7563     9.5674    -0.5098 H       
  59 H59           -5.1483     8.3031    -1.7019 H       
  60 H60           -6.3729     9.5416     3.5260 H       
  61 H61           -8.4599    10.7961     3.8473 H       
  62 H62           -6.7078    14.2137     1.9546 H       
  63 H63           -4.6126    12.9714     1.6391 H       
  64 H64           -9.7479    12.8741     2.8995 H       
  65 H65          -11.6643    12.4704     6.8260 H       
  66 H66          -10.7853    12.3512     9.1200 H       
  67 H67           -8.6240    13.3960     9.6631 H       
  68 H68           -6.6462    14.6945     8.8586 H       
  69 H69           -5.4809    15.8144     7.0336 H       
  70 H70           -6.4480    15.8759     4.7754 H       
@<TRIPOS>BOND
   1    1    2 1
   2    1    3 2
   3    1    4 1
   4    2   41 1
   5    2   42 1
   6    2   43 1
   7    4    5 1
   8    5    6 ar
   9    5   10 ar
  10    6    7 ar
  11    6   44 1
  12    7    8 ar
  13    7   11 1
  14    8    9 ar
  15    8   45 1
  16    9   10 ar
  17    9   46 1
  18   10   47 1
  19   11   12 1
  20   11   48 1
  21   11   49 1
  22   12   13 1
  23   12   18 1
  24   13   14 1
  25   13   50 1
  26   13   51 1
  27   14   15 1
  28   14   52 1
  29   14   53 1
  30   15   16 1
  31   15   19 am
  32   16   17 1
  33   16   54 1
  34   16   55 1
  35   17   18 1
  36   17   56 1
  37   17   57 1
  38   18   58 1
  39   18   59 1
  40   19   20 1
  41   19   26 2
  42   20   21 ar
  43   20   25 ar
  44   21   22 ar
  45   21   60 1
  46   22   23 ar
  47   22   61 1
  48   23   24 ar
  49   23   30 1
  50   24   25 ar
  51   24   62 1
  52   25   63 1
  53   27   28 2
  54   27   29 2
  55   27   30 am
  56   27   39 1
  57   30   64 1
  58   31   32 ar
  59   31   40 ar
  60   32   33 ar
  61   32   65 1
  62   33   34 ar
  63   33   66 1
  64   34   35 ar
  65   34   67 1
  66   35   36 ar
  67   35   40 ar
  68   36   37 ar
  69   36   68 1
  70   37   38 ar
  71   37   69 1
  72   38   39 ar
  73   38   70 1
  74   39   40 ar

#	End of record

