#	Name: ASD01730039
#	Creating user name:	WinNT
#	Creation time:	15. 06. 2019 19:23

#	Modifying user name:	WinNT
#	Modification time:	15. 06. 2019 19:23

#	Program:	/corina/corina34_cracker 3.40 0067  02.08.2006

@<TRIPOS>MOLECULE
ASD01730039
  29   30    0    0    0
SMALL
NO_CHARGES


@<TRIPOS>ATOM
   1 N1            -0.0162     1.3436     0.0094 N.am    
   2 C2             0.0985     0.0022    -0.0537 C.2     
   3 S3             1.6384    -0.7164    -0.2620 S.2     
   4 N4            -0.9991    -0.7735     0.0470 N.am    
   5 C5            -0.8744    -2.2316    -0.0217 C.3     
   6 C6            -2.2583    -2.8689     0.1180 C.3     
   7 N7             0.9964     3.4255    -0.0352 N.2     
   8 C8             1.1146     2.1317     0.0340 C.2     
   9 S9             2.6997     1.3727     0.1592 S.3     
  10 C10            3.6674     2.5514    -0.8170 C.3     
  11 C11            3.3323     3.9531    -0.3744 C.ar    
  12 C12            2.0356     4.3060    -0.0098 C.ar    
  13 C13            4.3426     4.8957    -0.3337 C.ar    
  14 C14            4.0765     6.1904     0.0714 C.ar    
  15 C15            2.7925     6.5504     0.4398 C.ar    
  16 C16            1.7766     5.6216     0.4021 C.ar    
  17 H17           -0.8945     1.7546     0.0336 H       
  18 H18           -1.8715    -0.3664     0.1650 H       
  19 H19           -0.4393    -2.5143    -0.9802 H       
  20 H20           -0.2309    -2.5797     0.7863 H       
  21 H21           -2.1656    -3.9537     0.0669 H       
  22 H22           -2.6935    -2.5862     1.0765 H       
  23 H23           -2.9018    -2.5208    -0.6900 H       
  24 H24            4.7304     2.3653    -0.6637 H       
  25 H25            3.4249     2.4352    -1.8733 H       
  26 H26            5.3465     4.6188    -0.6199 H       
  27 H27            4.8713     6.9210     0.1008 H       
  28 H28            2.5866     7.5617     0.7578 H       
  29 H29            0.7760     5.9074     0.6910 H       
@<TRIPOS>BOND
   1    1    2 am
   2    1    8 1
   3    1   17 1
   4    2    3 2
   5    2    4 am
   6    4    5 1
   7    4   18 1
   8    5    6 1
   9    5   19 1
  10    5   20 1
  11    6   21 1
  12    6   22 1
  13    6   23 1
  14    7    8 2
  15    7   12 1
  16    8    9 1
  17    9   10 1
  18   10   11 1
  19   10   24 1
  20   10   25 1
  21   11   12 ar
  22   11   13 ar
  23   12   16 ar
  24   13   14 ar
  25   13   26 1
  26   14   15 ar
  27   14   27 1
  28   15   16 ar
  29   15   28 1
  30   16   29 1

#	End of record

