#	Name: ASD08178100
#	Creating user name:	WinNT
#	Creation time:	15. 06. 2019 21:18

#	Modifying user name:	WinNT
#	Modification time:	15. 06. 2019 21:18

#	Program:	/corina/corina34_cracker 3.40 0067  02.08.2006

@<TRIPOS>MOLECULE
ASD08178100
  59   62    0    0    0
SMALL
NO_CHARGES


@<TRIPOS>ATOM
   1 C1            -0.0184     1.5028     0.0103 C.2     
   2 C2             0.0021    -0.0041     0.0020 C.3     
   3 C3             0.0221    -0.5218     1.4416 C.3     
   4 C4             0.0906    -4.2741     3.3609 C.3     
   5 C5             0.1086    -4.6210     4.8273 C.2     
   6 N6            -0.9281    -4.8115     5.5801 N.2     
   7 N7            -0.7035    -5.0951     6.7896 N.2     
   8 C8             0.5358    -5.1706     7.1711 C.2     
   9 S9             1.5453    -4.8479     5.8252 S.3     
  10 N10            0.9711    -5.4695     8.4577 N.am    
  11 N11            1.0171     2.2809     0.0046 N.2     
  12 C12            0.0736    -5.7112     9.4337 C.2     
  13 O13           -1.1137    -5.6681     9.1899 O.2     
  14 C14            0.5452    -6.0351    10.8278 C.3     
  15 C15           -0.6469    -6.2610    11.7217 C.ar    
  16 N16            0.7904     3.5228     0.0134 N.2     
  17 C17           -0.4495     3.9094     0.0274 C.2     
  18 S18           -1.4568     2.5237     0.0218 S.3     
  19 C19           -2.3044    -5.4074    13.2292 C.ar    
  20 C20           -1.1805    -7.5311    11.8567 C.ar    
  21 C21           -2.2759    -7.7375    12.6782 C.ar    
  22 C22           -2.8367    -6.6759    13.3629 C.ar    
  23 C23           -1.2055    -5.1997    12.4126 C.ar    
  24 N24           -0.8870     5.2295     0.0390 N.am    
  25 C25            0.0089     6.2364     0.0358 C.2     
  26 O26            1.1967     5.9912     0.0228 O.2     
  27 C27           -0.4651     7.6668     0.0485 C.3     
  28 C28            0.7256     8.5906     0.0419 C.ar    
  29 C29            1.2610     9.0219    -1.1595 C.ar    
  30 C30            2.3550     9.8707    -1.1643 C.ar    
  31 C31            2.9124    10.2873     0.0298 C.ar    
  32 C32            2.3786     9.8573     1.2300 C.ar    
  33 C33            1.2811     9.0131     1.2373 C.ar    
  34 F34            0.7593     8.5932     2.4106 F       
  35 F35           -0.6851    -3.9597    12.2824 F       
  36 C36            0.0684    -2.7531     3.1968 C.3     
  37 S37            0.0467    -2.3356     1.4317 S.3     
  38 F38           -0.6331    -8.5688    11.1869 F       
  39 F39            0.7166     8.6145    -2.3269 F       
  40 H40           -0.8875    -0.3767    -0.5057 H       
  41 H41            0.8922    -0.3525    -0.5218 H       
  42 H42            0.9118    -0.1491     1.9494 H       
  43 H43           -0.8680    -0.1733     1.9655 H       
  44 H44            0.9818    -4.6784     2.8810 H       
  45 H45           -0.7979    -4.7026     2.8970 H       
  46 H46            1.9207    -5.5040     8.6527 H       
  47 H47            1.1575    -6.9366    10.8040 H       
  48 H48            1.1363    -5.2045    11.2136 H       
  49 H49           -2.7405    -4.5795    13.7684 H       
  50 H50           -2.6924    -8.7283    12.7838 H       
  51 H51           -3.6913    -6.8377    14.0031 H       
  52 H52           -1.8369     5.4256     0.0495 H       
  53 H53           -1.0758     7.8550    -0.8345 H       
  54 H54           -1.0583     7.8451     0.9454 H       
  55 H55            2.7731    10.2071    -2.1015 H       
  56 H56            3.7659    10.9491     0.0251 H       
  57 H57            2.8152    10.1832     2.1625 H       
  58 H58           -0.8229    -2.3488     3.6768 H       
  59 H59            0.9569    -2.3246     3.6607 H       
@<TRIPOS>BOND
   1    1    2 1
   2    1   11 2
   3    1   18 1
   4    2    3 1
   5    2   40 1
   6    2   41 1
   7    3   37 1
   8    3   42 1
   9    3   43 1
  10    4    5 1
  11    4   36 1
  12    4   44 1
  13    4   45 1
  14    5    6 2
  15    5    9 1
  16    6    7 1
  17    7    8 2
  18    8    9 1
  19    8   10 1
  20   10   12 am
  21   10   46 1
  22   11   16 1
  23   12   13 2
  24   12   14 1
  25   14   15 1
  26   14   47 1
  27   14   48 1
  28   15   20 ar
  29   15   23 ar
  30   16   17 2
  31   17   18 1
  32   17   24 1
  33   19   23 ar
  34   19   22 ar
  35   19   49 1
  36   20   21 ar
  37   20   38 1
  38   21   22 ar
  39   21   50 1
  40   22   51 1
  41   23   35 1
  42   24   25 am
  43   24   52 1
  44   25   26 2
  45   25   27 1
  46   27   28 1
  47   27   53 1
  48   27   54 1
  49   28   29 ar
  50   28   33 ar
  51   29   30 ar
  52   29   39 1
  53   30   31 ar
  54   30   55 1
  55   31   32 ar
  56   31   56 1
  57   32   33 ar
  58   32   57 1
  59   33   34 1
  60   36   37 1
  61   36   58 1
  62   36   59 1

#	End of record

