#	Name: ASD05380016
#	Creating user name:	WinNT
#	Creation time:	15. 06. 2019 20:59

#	Modifying user name:	WinNT
#	Modification time:	15. 06. 2019 20:59

#	Program:	/corina/corina34_cracker 3.40 0067  02.08.2006

@<TRIPOS>MOLECULE
ASD05380016
  52   56    0    0    0
SMALL
NO_CHARGES


@<TRIPOS>ATOM
   1 C1            -0.1770     1.5730    -0.4573 C.ar    
   2 C2             0.0311     0.2575     0.0145 C.ar    
   3 C3             0.8914     2.3102    -0.9632 C.ar    
   4 C4             2.1485     1.7467    -0.9991 C.ar    
   5 C5             2.3564     0.4541    -0.5368 C.ar    
   6 C6             1.3141    -0.2910    -0.0320 C.ar    
   7 C7             0.6740     3.7134    -1.4678 C.3     
   8 N8            -1.0240    -0.4411     0.5032 N.2     
   9 C9            -2.2169     0.0695     0.5472 C.2     
  10 N10           -2.5086     1.3263     0.1154 N.am    
  11 C11           -1.5382     2.1240    -0.3885 C.2     
  12 C12           -3.8238     1.8008     0.1980 C.ar    
  13 C13           -4.7052     1.5950    -0.8551 C.ar    
  14 C14           -4.2508     2.4730     1.3356 C.ar    
  15 C15           -5.5485     2.9393     1.4142 C.ar    
  16 C16           -6.4223     2.7370     0.3618 C.ar    
  17 C17           -6.0016     2.0637    -0.7704 C.ar    
  18 C18           -3.3354    -0.7729     1.1045 C.3     
  19 N19           -3.1284    -2.1725     0.7246 N.pl3   
  20 C20           -4.2076    -3.0353     0.6474 C.ar    
  21 N21           -5.4380    -2.6101     0.9148 N.ar    
  22 O22           -1.7848     3.2504    -0.7784 O.2     
  23 C23           -4.0279    -4.3793     0.2790 C.ar    
  24 C24           -5.1604    -5.2084     0.2177 C.ar    
  25 N25           -6.3527    -4.6969     0.5071 N.ar    
  26 C26           -6.4753    -3.4276     0.8436 C.ar    
  27 N27           -2.9578    -5.1393    -0.0585 N.2     
  28 C28           -3.3522    -6.3521    -0.3167 C.2     
  29 N29           -4.7036    -6.4456    -0.1603 N.pl3   
  30 C30           -3.3510    -0.6554     2.6299 C.3     
  31 C31           -4.5603    -1.4091     3.1871 C.3     
  32 F32           -7.7052    -2.9448     1.1254 F       
  33 H33            2.9790     2.3153    -1.3907 H       
  34 H34            3.3480     0.0278    -0.5731 H       
  35 H35            1.4882    -1.2951     0.3254 H       
  36 H36            0.6997     4.4092    -0.6292 H       
  37 H37            1.4605     3.9703    -2.1774 H       
  38 H38           -0.2956     3.7756    -1.9620 H       
  39 H39           -4.3771     1.0693    -1.7397 H       
  40 H40           -3.5690     2.6307     2.1582 H       
  41 H41           -5.8812     3.4622     2.2987 H       
  42 H42           -7.4368     3.1019     0.4259 H       
  43 H43           -6.6863     1.9076    -1.5909 H       
  44 H44           -4.2871    -0.4244     0.7035 H       
  45 H45           -2.2350    -2.4945     0.5272 H       
  46 H46           -2.7048    -7.1647    -0.6116 H       
  47 H47           -5.2430    -7.2410    -0.2919 H       
  48 H48           -2.4358    -1.0855     3.0368 H       
  49 H49           -3.4158     0.3953     2.9128 H       
  50 H50           -4.4955    -2.4597     2.9042 H       
  51 H51           -4.5714    -1.3254     4.2738 H       
  52 H52           -5.4755    -0.9790     2.7802 H       
@<TRIPOS>BOND
   1    1    2 ar
   2    1    3 ar
   3    1   11 1
   4    2    8 1
   5    2    6 ar
   6    3    4 ar
   7    3    7 1
   8    4    5 ar
   9    4   33 1
  10    5    6 ar
  11    5   34 1
  12    6   35 1
  13    7   36 1
  14    7   37 1
  15    7   38 1
  16    8    9 2
  17    9   10 1
  18    9   18 1
  19   10   11 am
  20   10   12 1
  21   11   22 2
  22   12   13 ar
  23   12   14 ar
  24   13   17 ar
  25   13   39 1
  26   14   15 ar
  27   14   40 1
  28   15   16 ar
  29   15   41 1
  30   16   17 ar
  31   16   42 1
  32   17   43 1
  33   18   19 1
  34   18   30 1
  35   18   44 1
  36   19   20 1
  37   19   45 1
  38   20   21 ar
  39   20   23 ar
  40   21   26 ar
  41   23   24 ar
  42   23   27 1
  43   24   25 ar
  44   24   29 1
  45   25   26 ar
  46   26   32 1
  47   27   28 2
  48   28   29 1
  49   28   46 1
  50   29   47 1
  51   30   31 1
  52   30   48 1
  53   30   49 1
  54   31   50 1
  55   31   51 1
  56   31   52 1

#	End of record

