#	Name: ASD01028771
#	Creating user name:	WinNT
#	Creation time:	15. 06. 2019 18:58

#	Modifying user name:	WinNT
#	Modification time:	15. 06. 2019 18:58

#	Program:	/corina/corina34_cracker 3.40 0067  02.08.2006

@<TRIPOS>MOLECULE
ASD01028771
  13   13    0    0    0
SMALL
NO_CHARGES


@<TRIPOS>ATOM
   1 N1            -0.0154     1.2846     0.0091 N.2     
   2 N2             0.0021    -0.0041     0.0020 N.pl3   
   3 C3             1.3008    -0.4053    -0.0125 C.2     
   4 N4             2.0436     0.6904    -0.0137 N.2     
   5 C5             1.2170     1.7295    -0.0003 C.2     
   6 C6             1.7878    -1.7925    -0.0242 C.2     
   7 O7             2.9796    -2.0166    -0.0368 O.2     
   8 C8            -1.1709    -0.8817     0.0092 C.3     
   9 H9             1.5115     2.7685     0.0018 H       
  10 H10            1.0843    -2.6119    -0.0215 H       
  11 H11           -1.4720    -1.0943    -1.0166 H       
  12 H12           -0.9236    -1.8146     0.5160 H       
  13 H13           -1.9898    -0.3894     0.5337 H       
@<TRIPOS>BOND
   1    1    2 1
   2    1    5 2
   3    2    3 1
   4    2    8 1
   5    3    4 2
   6    3    6 1
   7    4    5 1
   8    5    9 1
   9    6    7 2
  10    6   10 1
  11    8   11 1
  12    8   12 1
  13    8   13 1

#	End of record

