#	Name: ASD01901250
#	Creating user name:	WinNT
#	Creation time:	15. 06. 2019 19:53

#	Modifying user name:	WinNT
#	Modification time:	15. 06. 2019 19:53

#	Program:	/corina/corina34_cracker 3.40 0067  02.08.2006

@<TRIPOS>MOLECULE
ASD01901250
  42   45    0    0    0
SMALL
NO_CHARGES


@<TRIPOS>ATOM
   1 C1             1.9331     1.0625     0.0886 C.ar    
   2 N2             2.1408    -0.2370     0.1231 N.ar    
   3 C3             3.3499    -0.7464     0.2632 C.ar    
   4 C4             4.4604     0.0699     0.3807 C.ar    
   5 C5             4.2980     1.4436     0.3506 C.ar    
   6 C6             3.0022     1.9556     0.2008 C.ar    
   7 C7             2.7774     3.3694     0.1629 C.1     
   8 C8             2.5932     4.5284     0.1318 C.1     
   9 C9             2.3684     5.9422     0.0939 C.ar    
  10 C10            0.8579     7.8045    -0.0862 C.ar    
  11 C11            1.0708     6.4416    -0.0505 C.ar    
  12 C12            3.4455     6.8260     0.2072 C.ar    
  13 C13            3.2252     8.1877     0.1707 C.ar    
  14 C14            1.9328     8.6813     0.0219 C.ar    
  15 F15           -0.3959     8.2880    -0.2258 F       
  16 N16            1.7128    10.0650    -0.0151 N.am    
  17 C17            1.4823    10.7330     1.1309 C.2     
  18 C18            1.2844    12.7899    -0.1234 C.2     
  19 N19            1.5353    12.0344    -1.2768 N.am    
  20 C20            1.7400    10.7103    -1.1935 C.2     
  21 C21            1.5684    12.6940    -2.5845 C.3     
  22 O22            1.9559    10.0789    -2.2101 O.2     
  23 O23            1.4651    10.1379     2.1937 O.2     
  24 F24            4.2656     9.0427     0.2800 F       
  25 C25            0.8475    14.5789     1.2587 C.2     
  26 C26            1.0495    14.1529     0.0139 C.2     
  27 C27            1.2602    12.1328     1.0940 C.2     
  28 S28            0.9357    13.2933     2.3742 S.3     
  29 C29            1.0256    15.0869    -1.1685 C.3     
  30 H30            0.9290     1.4415    -0.0319 H       
  31 H31            3.4746    -1.8189     0.2869 H       
  32 H32            5.4443    -0.3606     0.4952 H       
  33 H33            5.1477     2.1041     0.4405 H       
  34 H34            0.2360     5.7616    -0.1345 H       
  35 H35            4.4488     6.4436     0.3234 H       
  36 H36            2.2833    13.5164    -2.5586 H       
  37 H37            1.8692    11.9750    -3.3465 H       
  38 H38            0.5774    13.0812    -2.8213 H       
  39 H39            0.6525    15.6066     1.5271 H       
  40 H40            2.0439    15.3888    -1.4137 H       
  41 H41            0.5814    14.5785    -2.0242 H       
  42 H42            0.4344    15.9690    -0.9228 H       
@<TRIPOS>BOND
   1    1    2 ar
   2    1    6 ar
   3    1   30 1
   4    2    3 ar
   5    3    4 ar
   6    3   31 1
   7    4    5 ar
   8    4   32 1
   9    5    6 ar
  10    5   33 1
  11    6    7 1
  12    7    8 3
  13    8    9 1
  14    9   12 ar
  15    9   11 ar
  16   10   11 ar
  17   10   14 ar
  18   10   15 1
  19   11   34 1
  20   12   13 ar
  21   12   35 1
  22   13   14 ar
  23   13   24 1
  24   14   16 1
  25   16   17 am
  26   16   20 am
  27   17   27 1
  28   17   23 2
  29   18   19 1
  30   18   27 2
  31   18   26 1
  32   19   20 am
  33   19   21 1
  34   20   22 2
  35   21   36 1
  36   21   37 1
  37   21   38 1
  38   25   26 2
  39   25   28 1
  40   25   39 1
  41   26   29 1
  42   27   28 1
  43   29   40 1
  44   29   41 1
  45   29   42 1

#	End of record

