#	Name: ASD01913520
#	Creating user name:	WinNT
#	Creation time:	15. 06. 2019 20:01

#	Modifying user name:	WinNT
#	Modification time:	15. 06. 2019 20:01

#	Program:	/corina/corina34_cracker 3.40 0067  02.08.2006

@<TRIPOS>MOLECULE
ASD01913520
  25   26    0    0    0
SMALL
NO_CHARGES


@<TRIPOS>ATOM
   1 N1            -0.0169     1.3965     0.0097 N.2     
   2 N2             0.0021    -0.0041     0.0020 N.pl3   
   3 C3             1.2284     1.8226     0.0001 C.2     
   4 C4             2.0722     0.6950    -0.0140 C.2     
   5 C5             1.2909    -0.4070    -0.0125 C.2     
   6 C6             1.7727    -1.8348    -0.0243 C.3     
   7 C7             1.6661     3.2408     0.0031 C.ar    
   8 C8             0.7206     4.2641     0.0177 C.ar    
   9 C9             1.1336     5.5820     0.0204 C.ar    
  10 C10            2.4843     5.8864     0.0081 C.ar    
  11 C11            3.4259     4.8738    -0.0063 C.ar    
  12 C12            3.0236     3.5532    -0.0029 C.ar    
  13 C13            2.0682    -2.2852     1.4078 C.3     
  14 Cl14          -0.0424     6.8589     0.0385 Cl      
  15 H15           -0.7755    -0.5839     0.0068 H       
  16 H16            3.1521     0.7089    -0.0246 H       
  17 H17            1.0025    -2.4747    -0.4548 H       
  18 H18            2.6811    -1.9068    -0.6225 H       
  19 H19           -0.3330     4.0272     0.0265 H       
  20 H20            2.8035     6.9181     0.0096 H       
  21 H21            4.4782     5.1166    -0.0162 H       
  22 H22            3.7603     2.7635    -0.0139 H       
  23 H23            2.8385    -1.6454     1.8383 H       
  24 H24            1.1599    -2.2132     2.0060 H       
  25 H25            2.4168    -3.3180     1.3992 H       
@<TRIPOS>BOND
   1    1    2 1
   2    1    3 2
   3    2    5 1
   4    2   15 1
   5    3    4 1
   6    3    7 1
   7    4    5 2
   8    4   16 1
   9    5    6 1
  10    6   13 1
  11    6   17 1
  12    6   18 1
  13    7    8 ar
  14    7   12 ar
  15    8    9 ar
  16    8   19 1
  17    9   10 ar
  18    9   14 1
  19   10   11 ar
  20   10   20 1
  21   11   12 ar
  22   11   21 1
  23   12   22 1
  24   13   23 1
  25   13   24 1
  26   13   25 1

#	End of record

