#	Name: ASD02500912
#	Creating user name:	WinNT
#	Creation time:	15. 06. 2019 20:23

#	Modifying user name:	WinNT
#	Modification time:	15. 06. 2019 20:23

#	Program:	/corina/corina34_cracker 3.40 0067  02.08.2006

@<TRIPOS>MOLECULE
ASD02500912
  48   51    0    0    0
SMALL
NO_CHARGES


@<TRIPOS>ATOM
   1 C1            -0.0170     1.4039     0.0098 C.2     
   2 C2             0.0021    -0.0041     0.0020 C.2     
   3 C3            -1.2756    -0.7348     0.0127 C.ar    
   4 C4            -2.4434     0.0222    -0.2105 C.ar    
   5 O5            -2.3812     1.3521    -0.4531 O.3     
   6 C6            -1.3398     2.0750     0.0202 C.2     
   7 C7            -1.3496    -2.1052     0.2332 C.ar    
   8 C8            -2.5812    -2.7265     0.2437 C.ar    
   9 C9            -3.7346    -1.9855     0.0366 C.ar    
  10 C10           -3.6720    -0.6263    -0.1882 C.ar    
  11 C11            1.2453     1.9594     0.0007 C.2     
  12 C12            2.2477     1.0545    -0.0157 C.2     
  13 S13            1.5941    -0.5777    -0.0192 S.3     
  14 C14            3.6769     1.3858    -0.0286 C.2     
  15 N15            4.5968     0.4010    -0.0446 N.am    
  16 O16            4.0317     2.5498    -0.0249 O.2     
  17 O17           -1.4806     3.2101     0.4349 O.2     
  18 C18            6.0239     0.7318    -0.0575 C.3     
  19 C19           -2.6731    -4.2120     0.4799 C.3     
  20 C20            6.8464    -0.5582    -0.0744 C.3     
  21 C21            8.3368    -0.2127    -0.0879 C.3     
  22 N22            9.1265    -1.4513    -0.1041 N.3     
  23 C23           10.5510    -1.1664    -0.3563 C.3     
  24 C24           11.3516    -1.7607     0.8215 C.3     
  25 C25           10.3921    -2.8411     1.3864 C.3     
  26 C26            9.0108    -2.1703     1.1825 C.3     
  27 H27           -0.4493    -2.6795     0.3948 H       
  28 H28           -4.6949    -2.4794     0.0510 H       
  29 H29           -4.5805    -0.0642    -0.3467 H       
  30 H30            1.4174     3.0256     0.0058 H       
  31 H31            4.3140    -0.5269    -0.0475 H       
  32 H32            6.2525     1.3201    -0.9462 H       
  33 H33            6.2712     1.3087     0.8337 H       
  34 H34           -2.7702    -4.4047     1.5483 H       
  35 H35           -3.5438    -4.6097    -0.0416 H       
  36 H36           -1.7719    -4.6962     0.1038 H       
  37 H37            6.6179    -1.1465     0.8143 H       
  38 H38            6.5991    -1.1351    -0.9655 H       
  39 H39            8.5654     0.3756    -0.9766 H       
  40 H40            8.5841     0.3642     0.8033 H       
  41 H41           10.8630    -1.6341    -1.2902 H       
  42 H42           10.7105    -0.0893    -0.4071 H       
  43 H43           12.2775    -2.2144     0.4681 H       
  44 H44           11.5571    -0.9974     1.5719 H       
  45 H45           10.4653    -3.7660     0.8143 H       
  46 H46           10.5864    -3.0214     2.4437 H       
  47 H47            8.8062    -1.4694     1.9919 H       
  48 H48            8.2269    -2.9255     1.1261 H       
@<TRIPOS>BOND
   1    1    2 2
   2    1   11 1
   3    1    6 1
   4    2    3 1
   5    2   13 1
   6    3    4 ar
   7    3    7 ar
   8    4    5 1
   9    4   10 ar
  10    5    6 1
  11    6   17 2
  12    7    8 ar
  13    7   27 1
  14    8    9 ar
  15    8   19 1
  16    9   10 ar
  17    9   28 1
  18   10   29 1
  19   11   12 2
  20   11   30 1
  21   12   13 1
  22   12   14 1
  23   14   15 am
  24   14   16 2
  25   15   18 1
  26   15   31 1
  27   18   20 1
  28   18   32 1
  29   18   33 1
  30   19   34 1
  31   19   35 1
  32   19   36 1
  33   20   21 1
  34   20   37 1
  35   20   38 1
  36   21   22 1
  37   21   39 1
  38   21   40 1
  39   22   23 1
  40   22   26 1
  41   23   24 1
  42   23   41 1
  43   23   42 1
  44   24   25 1
  45   24   43 1
  46   24   44 1
  47   25   26 1
  48   25   45 1
  49   25   46 1
  50   26   47 1
  51   26   48 1

#	End of record

