#	Name: ASD08830033
#	Creating user name:	WinNT
#	Creation time:	15. 06. 2019 21:19

#	Modifying user name:	WinNT
#	Modification time:	15. 06. 2019 21:19

#	Program:	/corina/corina34_cracker 3.40 0067  02.08.2006

@<TRIPOS>MOLECULE
ASD08830033
  45   47    0    0    0
SMALL
NO_CHARGES


@<TRIPOS>ATOM
   1 C1            -0.0131     1.3739    -0.0174 C.ar    
   2 C2             0.0138    -0.0443    -0.0409 C.ar    
   3 C3             1.1960     2.0948    -0.0141 C.ar    
   4 C4             2.3807     1.4348    -0.0338 C.ar    
   5 C5             2.4223     0.0265    -0.0577 C.ar    
   6 C6             1.2469    -0.7119    -0.0611 C.ar    
   7 C7             3.7197    -0.6656    -0.0798 C.2     
   8 C8             4.9989     0.1312    -0.0768 C.3     
   9 C9             6.1944    -0.8234    -0.1024 C.3     
  10 N10            7.4413    -0.0467    -0.0994 N.3     
  11 O11            3.7603    -1.8774    -0.1004 O.2     
  12 C12            8.6040    -0.9185     0.1148 C.3     
  13 C13           -1.2507     2.0369    -0.0036 C.ar    
  14 C14           -1.1985    -0.7573    -0.0439 C.ar    
  15 C15           -2.3788    -0.0793    -0.0244 C.ar    
  16 C16           -2.4047     1.3136    -0.0128 C.ar    
  17 C17            9.8893    -0.1046    -0.0688 C.3     
  18 N18            9.8254     1.0738     0.8091 N.am    
  19 C19            8.6252     1.9218     0.7493 C.3     
  20 C20            7.3897     1.0281     0.9006 C.3     
  21 C21           10.8400     1.3689     1.6457 C.2     
  22 O22           10.8154     2.3962     2.2900 O.2     
  23 C23           12.0049     0.4225     1.7807 C.3     
  24 H24            1.1803     3.1745     0.0037 H       
  25 H25            3.3037     1.9956    -0.0315 H       
  26 H26            1.2818    -1.7912    -0.0795 H       
  27 H27            5.0285     0.7742    -0.9564 H       
  28 H28            5.0429     0.7444     0.8233 H       
  29 H29            6.1648    -1.4664     0.7772 H       
  30 H30            6.1504    -1.4366    -1.0024 H       
  31 H31            8.5723    -1.3253     1.1255 H       
  32 H32            8.5843    -1.7350    -0.6071 H       
  33 H33           -1.2874     3.1162     0.0147 H       
  34 H34           -1.1931    -1.8371    -0.0620 H       
  35 H35           -3.3084    -0.6289    -0.0271 H       
  36 H36           -3.3545     1.8276     0.0030 H       
  37 H37           10.7511    -0.7153     0.2003 H       
  38 H38            9.9743     0.2164    -1.1069 H       
  39 H39            8.6512     2.6508     1.5593 H       
  40 H40            8.5887     2.4376    -0.2102 H       
  41 H41            6.4893     1.6234     0.7487 H       
  42 H42            7.3749     0.5942     1.9005 H       
  43 H43           11.8075    -0.4813     1.2043 H       
  44 H44           12.9086     0.9027     1.4053 H       
  45 H45           12.1414     0.1616     2.8302 H       
@<TRIPOS>BOND
   1    1    2 ar
   2    1    3 ar
   3    1   13 ar
   4    2   14 ar
   5    2    6 ar
   6    3    4 ar
   7    3   24 1
   8    4    5 ar
   9    4   25 1
  10    5    6 ar
  11    5    7 1
  12    6   26 1
  13    7    8 1
  14    7   11 2
  15    8    9 1
  16    8   27 1
  17    8   28 1
  18    9   10 1
  19    9   29 1
  20    9   30 1
  21   10   12 1
  22   10   20 1
  23   12   17 1
  24   12   31 1
  25   12   32 1
  26   13   16 ar
  27   13   33 1
  28   14   15 ar
  29   14   34 1
  30   15   16 ar
  31   15   35 1
  32   16   36 1
  33   17   18 1
  34   17   37 1
  35   17   38 1
  36   18   19 1
  37   18   21 am
  38   19   20 1
  39   19   39 1
  40   19   40 1
  41   20   41 1
  42   20   42 1
  43   21   22 2
  44   21   23 1
  45   23   43 1
  46   23   44 1
  47   23   45 1

#	End of record

