#	Name: ASD01917347
#	Creating user name:	WinNT
#	Creation time:	15. 06. 2019 20:09

#	Modifying user name:	WinNT
#	Modification time:	15. 06. 2019 20:09

#	Program:	/corina/corina34_cracker 3.40 0067  02.08.2006

@<TRIPOS>MOLECULE
ASD01917347
  50   53    0    0    0
SMALL
NO_CHARGES


@<TRIPOS>ATOM
   1 C1            -0.0079     1.3974     0.0066 C.ar    
   2 C2             0.0140     0.0032     0.0025 C.ar    
   3 N3             1.1356     2.0766    -0.0073 N.ar    
   4 N4             1.1694    -0.6366    -0.0151 N.ar    
   5 C5             2.3024     0.0431    -0.0288 C.ar    
   6 C6             2.2841     1.4303    -0.0248 C.ar    
   7 C7            -1.3011     2.1201     0.0201 C.2     
   8 O8            -2.3448     1.4978     0.0277 O.2     
   9 N9            -1.3200     3.4677     0.0241 N.am    
  10 C10           -2.5988     4.1824     0.0375 C.3     
  11 C11           -3.4785     3.8401    -1.1777 C.3     
  12 C12           -4.8709     4.4389    -0.9697 C.3     
  13 C13           -4.7708     5.9456    -0.7235 C.3     
  14 C14           -3.8355     6.1972     0.4722 C.3     
  15 C15           -4.2293     5.1996     1.5859 C.3     
  16 C16           -3.4305     3.8908     1.3078 C.3     
  17 C17           -2.4226     5.7239     0.0397 C.3     
  18 C18           -3.8669     7.6298     0.9387 C.2     
  19 N19           -5.0260     8.1779     1.3542 N.am    
  20 O20           -2.8493     8.2895     0.9403 O.2     
  21 C21           -5.0364     9.4663     1.8866 C.ar    
  22 C22           -6.2471    10.0670     2.2128 C.ar    
  23 C23           -6.2430    11.3459     2.7409 C.ar    
  24 C24           -5.0231    11.9825     2.9252 C.ar    
  25 C25           -3.8589    11.3259     2.5789 C.ar    
  26 N26           -3.8934    10.1042     2.0819 N.ar    
  27 C27           -2.5314    12.0115     2.7760 C.3     
  28 H28           -0.9120    -0.5525     0.0141 H       
  29 H29            3.2456    -0.4828    -0.0432 H       
  30 H30            3.2127     1.9816    -0.0364 H       
  31 H31           -0.4868     3.9644     0.0180 H       
  32 H32           -3.0327     4.2585    -2.0801 H       
  33 H33           -3.5582     2.7575    -1.2769 H       
  34 H34           -5.4776     4.2579    -1.8570 H       
  35 H35           -5.3432     3.9636    -0.1100 H       
  36 H36           -4.3680     6.4341    -1.6107 H       
  37 H37           -5.7605     6.3456    -0.5028 H       
  38 H38           -3.9587     5.6020     2.5621 H       
  39 H39           -5.2997     4.9979     1.5468 H       
  40 H40           -4.1164     3.0637     1.1249 H       
  41 H41           -2.7700     3.6529     2.1416 H       
  42 H42           -1.6597     6.0290     0.7560 H       
  43 H43           -2.1882     6.0919    -0.9591 H       
  44 H44           -5.8529     7.6760     1.2827 H       
  45 H45           -7.1781     9.5426     2.0558 H       
  46 H46           -7.1679    11.8379     3.0034 H       
  47 H47           -4.9851    12.9810     3.3349 H       
  48 H48           -2.1500    11.7854     3.7718 H       
  49 H49           -1.8241    11.6561     2.0267 H       
  50 H50           -2.6600    13.0889     2.6721 H       
@<TRIPOS>BOND
   1    1    2 ar
   2    1    3 ar
   3    1    7 1
   4    2    4 ar
   5    2   28 1
   6    3    6 ar
   7    4    5 ar
   8    5    6 ar
   9    5   29 1
  10    6   30 1
  11    7    8 2
  12    7    9 am
  13    9   10 1
  14    9   31 1
  15   10   11 1
  16   10   16 1
  17   10   17 1
  18   11   12 1
  19   11   32 1
  20   11   33 1
  21   12   13 1
  22   12   34 1
  23   12   35 1
  24   13   14 1
  25   13   36 1
  26   13   37 1
  27   14   15 1
  28   14   17 1
  29   14   18 1
  30   15   16 1
  31   15   38 1
  32   15   39 1
  33   16   40 1
  34   16   41 1
  35   17   42 1
  36   17   43 1
  37   18   19 am
  38   18   20 2
  39   19   21 1
  40   19   44 1
  41   21   22 ar
  42   21   26 ar
  43   22   23 ar
  44   22   45 1
  45   23   24 ar
  46   23   46 1
  47   24   25 ar
  48   24   47 1
  49   25   26 ar
  50   25   27 1
  51   27   48 1
  52   27   49 1
  53   27   50 1

#	End of record

