#	Name: ASD05380045
#	Creating user name:	WinNT
#	Creation time:	15. 06. 2019 20:59

#	Modifying user name:	WinNT
#	Modification time:	15. 06. 2019 20:59

#	Program:	/corina/corina34_cracker 3.40 0067  02.08.2006

@<TRIPOS>MOLECULE
ASD05380045
  60   64    0    0    0
SMALL
NO_CHARGES


@<TRIPOS>ATOM
   1 C1            -0.1741     1.5678    -0.4536 C.ar    
   2 C2             0.0293     0.2522     0.0200 C.ar    
   3 C3             0.8975     2.3017    -0.9574 C.ar    
   4 C4             2.1531     1.7349    -0.9896 C.ar    
   5 C5             2.3565     0.4422    -0.5256 C.ar    
   6 C6             1.3109    -0.2997    -0.0228 C.ar    
   7 C7             0.6851     3.7050    -1.4640 C.3     
   8 N8            -1.0289    -0.4432     0.5066 N.2     
   9 C9            -2.2206     0.0707     0.5470 C.2     
  10 N10           -2.5079     1.3279     0.1133 N.am    
  11 C11           -1.5341     2.1225    -0.3888 C.2     
  12 C12           -3.8220     1.8059     0.1921 C.ar    
  13 C13           -4.7012     1.6016    -0.8632 C.ar    
  14 C14           -4.2502     2.4802     1.3280 C.ar    
  15 C15           -5.5468     2.9499     1.4028 C.ar    
  16 C16           -6.4185     2.7490     0.3483 C.ar    
  17 C17           -5.9965     2.0738    -0.7823 C.ar    
  18 C18           -3.3427    -0.7682     1.1022 C.3     
  19 N19           -3.1385    -2.1688     0.7241 N.pl3   
  20 C20           -4.2198    -3.0289     0.6450 C.ar    
  21 N21           -5.4501    -2.6006     0.9086 N.ar    
  22 O22           -1.7767     3.2492    -0.7804 O.2     
  23 C23           -4.0433    -4.3737     0.2784 C.ar    
  24 C24           -5.1791    -5.1988     0.2153 C.ar    
  25 N25           -6.3694    -4.6821     0.5022 N.ar    
  26 C26           -6.4876    -3.4141     0.8357 C.ar    
  27 N27           -2.9758    -5.1378    -0.0562 N.2     
  28 C28           -3.3743    -6.3495    -0.3143 C.2     
  29 N29           -4.7260    -6.4379    -0.1608 N.pl3   
  30 C30           -3.3619    -0.6493     2.6274 C.3     
  31 C31           -4.5747    -1.3992     3.1822 C.3     
  32 C32           -4.5939    -1.2803     4.7075 C.3     
  33 C33           -5.8067    -2.0303     5.2622 C.3     
  34 N34           -5.8251    -1.9161     6.7267 N.3     
  35 H35            2.9862     2.3009    -1.3796 H       
  36 H36            3.3471     0.0133    -0.5589 H       
  37 H37            1.4814    -1.3039     0.3360 H       
  38 H38            0.7106     4.4016    -0.6259 H       
  39 H39            1.4741     3.9592    -2.1718 H       
  40 H40           -0.2831     3.7694    -1.9606 H       
  41 H41           -4.3722     1.0742    -1.7465 H       
  42 H42           -3.5701     2.6368     2.1522 H       
  43 H43           -5.8804     3.4744     2.2860 H       
  44 H44           -7.4321     3.1167     0.4095 H       
  45 H45           -6.6795     1.9188    -1.6044 H       
  46 H46           -4.2925    -0.4177     0.6984 H       
  47 H47           -2.2454    -2.4933     0.5293 H       
  48 H48           -7.4701    -3.0247     1.0586 H       
  49 H49           -2.7293    -7.1649    -0.6069 H       
  50 H50           -5.2679    -7.2316    -0.2925 H       
  51 H51           -2.4490    -1.0814     3.0371 H       
  52 H52           -3.4247     0.4018     2.9092 H       
  53 H53           -5.4877    -0.9672     2.7725 H       
  54 H54           -4.5119    -2.4503     2.9005 H       
  55 H55           -3.6809    -1.7124     5.1171 H       
  56 H56           -4.6567    -0.2292     4.9892 H       
  57 H57           -6.7197    -1.5982     4.8525 H       
  58 H58           -5.7439    -3.0813     4.9805 H       
  59 H59           -6.6174    -2.4036     7.1174 H       
  60 H60           -4.9614    -2.2510     7.1264 H       
@<TRIPOS>BOND
   1    1    2 ar
   2    1    3 ar
   3    1   11 1
   4    2    8 1
   5    2    6 ar
   6    3    4 ar
   7    3    7 1
   8    4    5 ar
   9    4   35 1
  10    5    6 ar
  11    5   36 1
  12    6   37 1
  13    7   38 1
  14    7   39 1
  15    7   40 1
  16    8    9 2
  17    9   10 1
  18    9   18 1
  19   10   11 am
  20   10   12 1
  21   11   22 2
  22   12   13 ar
  23   12   14 ar
  24   13   17 ar
  25   13   41 1
  26   14   15 ar
  27   14   42 1
  28   15   16 ar
  29   15   43 1
  30   16   17 ar
  31   16   44 1
  32   17   45 1
  33   18   19 1
  34   18   30 1
  35   18   46 1
  36   19   20 1
  37   19   47 1
  38   20   21 ar
  39   20   23 ar
  40   21   26 ar
  41   23   24 ar
  42   23   27 1
  43   24   25 ar
  44   24   29 1
  45   25   26 ar
  46   26   48 1
  47   27   28 2
  48   28   29 1
  49   28   49 1
  50   29   50 1
  51   30   31 1
  52   30   51 1
  53   30   52 1
  54   31   32 1
  55   31   53 1
  56   31   54 1
  57   32   33 1
  58   32   55 1
  59   32   56 1
  60   33   34 1
  61   33   57 1
  62   33   58 1
  63   34   59 1
  64   34   60 1

#	End of record

