#	Name: ASD01580014
#	Creating user name:	WinNT
#	Creation time:	15. 06. 2019 19:22

#	Modifying user name:	WinNT
#	Modification time:	15. 06. 2019 19:22

#	Program:	/corina/corina34_cracker 3.40 0067  02.08.2006

@<TRIPOS>MOLECULE
ASD01580014
  20   20    0    0    0
SMALL
NO_CHARGES


@<TRIPOS>ATOM
   1 N1            -0.0178     1.4648     0.0101 N.3     
   2 C2             0.0021    -0.0041     0.0020 C.3     
   3 C3             0.7074    -0.4901    -1.2379 C.2     
   4 O4             1.4504     0.2491    -1.8392 O.2     
   5 C5             0.7421    -0.5109     1.2415 C.3     
   6 C6            -0.0298    -0.1295     2.4784 C.2     
   7 C7             0.0342     1.0450     3.1342 C.2     
   8 N8            -0.9351    -0.9080     3.1477 N.pl3   
   9 C9            -1.3888    -0.1838     4.1933 C.2     
  10 N10           -0.8047     0.9831     4.1789 N.2     
  11 O11            0.5104    -1.7441    -1.6742 O.3     
  12 H12            0.9191     1.8392     0.0032 H       
  13 H13           -0.5563     1.8234    -0.7642 H       
  14 H14           -1.0205    -0.3814     0.0098 H       
  15 H15            0.8346    -1.5958     1.1912 H       
  16 H16            1.7350    -0.0630     1.2804 H       
  17 H17            0.6526     1.8888     2.8660 H       
  18 H18           -1.2011    -1.8112     2.9145 H       
  19 H19           -2.1170    -0.5143     4.9192 H       
  20 H20            0.9846    -2.0103    -2.4737 H       
@<TRIPOS>BOND
   1    1    2 1
   2    1   12 1
   3    1   13 1
   4    2    5 1
   5    2    3 1
   6    2   14 1
   7    3   11 1
   8    3    4 2
   9    5    6 1
  10    5   15 1
  11    5   16 1
  12    6    8 1
  13    6    7 2
  14    7   10 1
  15    7   17 1
  16    8    9 1
  17    8   18 1
  18    9   10 2
  19    9   19 1
  20   11   20 1

#	End of record

