#	Name: ASD01840232
#	Creating user name:	WinNT
#	Creation time:	15. 06. 2019 19:37

#	Modifying user name:	WinNT
#	Modification time:	15. 06. 2019 19:37

#	Program:	/corina/corina34_cracker 3.40 0067  02.08.2006

@<TRIPOS>MOLECULE
ASD01840232
  33   35    0    0    0
SMALL
NO_CHARGES


@<TRIPOS>ATOM
   1 C1            -0.0169     1.3924     0.0097 C.ar    
   2 C2             0.0021    -0.0041     0.0020 C.ar    
   3 S3            -1.6621    -0.5830     0.0154 S.3     
   4 C4            -2.2523     1.0729     0.0301 C.2     
   5 N5            -1.2656     1.9001     0.0298 N.2     
   6 C6             1.2194     2.0815     0.0016 C.ar    
   7 C7             2.4049     1.3825    -0.0135 C.ar    
   8 C8             2.4053    -0.0048    -0.0214 C.ar    
   9 C9             1.2137    -0.6940    -0.0133 C.ar    
  10 O10            1.2360     3.4408     0.0083 O.3     
  11 C11            2.5170     4.0740    -0.0005 C.3     
  12 C12            1.2188    -2.2009    -0.0219 C.3     
  13 N13           -3.5887     1.4361     0.0453 N.am    
  14 C14           -3.9328     2.7392     0.0557 C.2     
  15 O15           -3.0708     3.5951     0.0518 O.2     
  16 C16           -5.3647     3.1283     0.0720 C.ar    
  17 N17           -6.3182     2.1997     0.0765 N.ar    
  18 C18           -7.5889     2.5408     0.0913 C.ar    
  19 N19           -7.9721     3.8027     0.1024 N.ar    
  20 C20           -7.0864     4.7842     0.0989 C.ar    
  21 C21           -5.7340     4.4742     0.0888 C.ar    
  22 H22            3.3426     1.9184    -0.0195 H       
  23 H23            3.3408    -0.5442    -0.0339 H       
  24 H24            2.3874     5.1562     0.0061 H       
  25 H25            3.0787     3.7699     0.8827 H       
  26 H26            3.0620     3.7789    -0.8971 H       
  27 H27            1.2303    -2.5701     1.0036 H       
  28 H28            0.3249    -2.5644    -0.5288 H       
  29 H29            2.1047    -2.5583    -0.5467 H       
  30 H30           -4.2770     0.7527     0.0485 H       
  31 H31           -8.3400     1.7648     0.0942 H       
  32 H32           -7.4113     5.8142     0.1080 H       
  33 H33           -4.9867     5.2539     0.0861 H       
@<TRIPOS>BOND
   1    1    2 ar
   2    1    6 ar
   3    1    5 1
   4    2    3 1
   5    2    9 ar
   6    3    4 1
   7    4    5 2
   8    4   13 1
   9    6    7 ar
  10    6   10 1
  11    7    8 ar
  12    7   22 1
  13    8    9 ar
  14    8   23 1
  15    9   12 1
  16   10   11 1
  17   11   24 1
  18   11   25 1
  19   11   26 1
  20   12   27 1
  21   12   28 1
  22   12   29 1
  23   13   14 am
  24   13   30 1
  25   14   15 2
  26   14   16 1
  27   16   17 ar
  28   16   21 ar
  29   17   18 ar
  30   18   19 ar
  31   18   31 1
  32   19   20 ar
  33   20   21 ar
  34   20   32 1
  35   21   33 1

#	End of record

