#	Name: ASD01881677
#	Creating user name:	WinNT
#	Creation time:	15. 06. 2019 19:43

#	Modifying user name:	WinNT
#	Modification time:	15. 06. 2019 19:43

#	Program:	/corina/corina34_cracker 3.40 0067  02.08.2006

@<TRIPOS>MOLECULE
ASD01881677
  37   40    0    0    0
SMALL
NO_CHARGES


@<TRIPOS>ATOM
   1 O1            -0.0161     1.3335     0.0094 O.3     
   2 C2             0.0021    -0.0041     0.0020 C.2     
   3 N3             1.2348    -0.5293    -0.0126 N.am    
   4 C4             2.2183     0.5645    -0.0161 C.3     
   5 C5             1.3508     1.8380    -0.0010 C.3     
   6 O6            -1.0070    -0.6809     0.0087 O.2     
   7 C7             1.6043     2.6745    -1.2567 C.3     
   8 O8             0.8078     3.8600    -1.2080 O.3     
   9 N9             1.0567     7.4864    -5.3057 N.pl3   
  10 N10            0.1305     8.3919    -4.7672 N.2     
  11 N11           -0.2965     7.9469    -3.6383 N.2     
  12 C12            0.2849     6.7654    -3.3502 C.ar    
  13 C13            1.1574     6.4497    -4.4062 C.ar    
  14 C14            0.1721     5.8817    -2.2681 C.ar    
  15 C15            0.9154     4.7195    -2.2564 C.ar    
  16 C16            1.7755     4.4203    -3.3102 C.ar    
  17 C17            1.8968     5.2729    -4.3711 C.ar    
  18 C18            1.7712     7.6157    -6.5781 C.3     
  19 C19            3.0907     8.3556    -6.3491 C.3     
  20 C20            4.0415     8.4895    -7.5403 C.3     
  21 C21            3.2694     9.7107    -7.0368 C.3     
  22 Br22          -0.9929     6.2797    -0.8328 Br      
  23 H23            1.4444    -1.4764    -0.0197 H       
  24 H24            2.8457     0.5181     0.8740 H       
  25 H25            2.8286     0.5277    -0.9184 H       
  26 H26            1.5485     2.4243     0.8964 H       
  27 H27            2.6586     2.9469    -1.3051 H       
  28 H28            1.3381     2.0939    -2.1399 H       
  29 H29            2.3519     3.5072    -3.2883 H       
  30 H30            2.5667     5.0320    -5.1833 H       
  31 H31            1.9760     6.6243    -6.9822 H       
  32 H32            1.1581     8.1762    -7.2838 H       
  33 H33            3.5354     8.2293    -5.3620 H       
  34 H34            5.1117     8.4517    -7.3368 H       
  35 H35            3.7270     8.0505    -8.4872 H       
  36 H36            2.4469    10.0750    -7.6523 H       
  37 H37            3.8316    10.4762    -6.5020 H       
@<TRIPOS>BOND
   1    1    2 1
   2    1    5 1
   3    2    3 am
   4    2    6 2
   5    3    4 1
   6    3   23 1
   7    4    5 1
   8    4   24 1
   9    4   25 1
  10    5    7 1
  11    5   26 1
  12    7    8 1
  13    7   27 1
  14    7   28 1
  15    8   15 1
  16    9   10 1
  17    9   13 1
  18    9   18 1
  19   10   11 2
  20   11   12 1
  21   12   13 ar
  22   12   14 ar
  23   13   17 ar
  24   14   15 ar
  25   14   22 1
  26   15   16 ar
  27   16   17 ar
  28   16   29 1
  29   17   30 1
  30   18   19 1
  31   18   31 1
  32   18   32 1
  33   19   20 1
  34   19   21 1
  35   19   33 1
  36   20   21 1
  37   20   34 1
  38   20   35 1
  39   21   36 1
  40   21   37 1

#	End of record

