#	Name: ASD01916847
#	Creating user name:	WinNT
#	Creation time:	15. 06. 2019 20:08

#	Modifying user name:	WinNT
#	Modification time:	15. 06. 2019 20:08

#	Program:	/corina/corina34_cracker 3.40 0067  02.08.2006

@<TRIPOS>MOLECULE
ASD01916847
  52   55    0    0    0
SMALL
NO_CHARGES


@<TRIPOS>ATOM
   1 C1            -0.0177     1.3158     0.0682 C.2     
   2 N2             0.0045     0.0057    -0.0508 N.2     
   3 N3            -1.3315    -0.4257    -0.0836 N.pl3   
   4 C4            -2.0973     0.6937     0.0218 C.2     
   5 N5            -1.2879     1.7295     0.1178 N.2     
   6 C6             1.1767     2.1936     0.1422 C.ar    
   7 C7             1.0241     3.5727     0.2681 C.ar    
   8 C8             2.4547     1.6409     0.0917 C.ar    
   9 C9             3.5621     2.4618     0.1613 C.ar    
  10 C10            3.4048     3.8308     0.2811 C.ar    
  11 C11           -1.8061    -1.8062    -0.2066 C.3     
  12 C12           -1.8426    -2.4482     1.1563 C.2     
  13 N13           -2.2500    -3.7261     1.2885 N.am    
  14 O14           -1.5054    -1.8150     2.1341 O.2     
  15 C15           -2.2932    -4.3719     2.6093 C.3     
  16 C16           -3.6786    -4.9985     2.7997 C.3     
  17 N17           -3.9719    -5.8844     1.6652 N.3     
  18 C18           -4.0339    -5.1331     0.4044 C.3     
  19 C19           -2.6688    -4.5100     0.1166 C.3     
  20 C20           -5.1417    -6.5927     1.8785 C.ar    
  21 N21           -5.5604    -7.4436     0.9532 N.ar    
  22 C22           -6.6741    -8.1361     1.1259 C.ar    
  23 C23           -7.4044    -7.9627     2.2911 C.ar    
  24 C24           -6.9377    -7.0647     3.2381 C.ar    
  25 N25           -5.8133    -6.4078     3.0055 N.ar    
  26 C26           -3.5697     0.7395     0.0330 C.2     
  27 C27            2.1384     4.3843     0.3369 C.ar    
  28 C28           -4.2106     1.2421     1.0823 C.2     
  29 C29           -4.3489     0.2161    -1.1460 C.3     
  30 H30            0.0358     4.0059     0.3115 H       
  31 H31            2.5786     0.5721    -0.0014 H       
  32 H32            4.5532     2.0345     0.1226 H       
  33 H33            4.2740     4.4696     0.3352 H       
  34 H34           -2.8077    -1.8091    -0.6366 H       
  35 H35           -1.1311    -2.3661    -0.8540 H       
  36 H36           -1.5298    -5.1481     2.6625 H       
  37 H37           -2.1178    -3.6280     3.3864 H       
  38 H38           -3.6931    -5.5750     3.7246 H       
  39 H39           -4.4303    -4.2107     2.8498 H       
  40 H40           -4.3060    -5.8072    -0.4077 H       
  41 H41           -4.7806    -4.3435     0.4879 H       
  42 H42           -2.7398    -3.8592    -0.7549 H       
  43 H43           -1.9388    -5.2977    -0.0695 H       
  44 H44           -7.0106    -8.8279     0.3678 H       
  45 H45           -8.3173    -8.5152     2.4574 H       
  46 H46           -7.4833    -6.9062     4.1566 H       
  47 H47            2.0212     5.4539     0.4301 H       
  48 H48           -3.6575     1.5411     1.9604 H       
  49 H49           -5.2847     1.3518     1.0573 H       
  50 H50           -4.5625    -0.8426    -0.9992 H       
  51 H51           -5.2854     0.7666    -1.2359 H       
  52 H52           -3.7624     0.3458    -2.0555 H       
@<TRIPOS>BOND
   1    1    2 2
   2    1    6 1
   3    1    5 1
   4    2    3 1
   5    3    4 1
   6    3   11 1
   7    4    5 2
   8    4   26 1
   9    6    7 ar
  10    6    8 ar
  11    7   27 ar
  12    7   30 1
  13    8    9 ar
  14    8   31 1
  15    9   10 ar
  16    9   32 1
  17   10   27 ar
  18   10   33 1
  19   11   12 1
  20   11   34 1
  21   11   35 1
  22   12   13 am
  23   12   14 2
  24   13   15 1
  25   13   19 1
  26   15   16 1
  27   15   36 1
  28   15   37 1
  29   16   17 1
  30   16   38 1
  31   16   39 1
  32   17   18 1
  33   17   20 1
  34   18   19 1
  35   18   40 1
  36   18   41 1
  37   19   42 1
  38   19   43 1
  39   20   21 ar
  40   20   25 ar
  41   21   22 ar
  42   22   23 ar
  43   22   44 1
  44   23   24 ar
  45   23   45 1
  46   24   25 ar
  47   24   46 1
  48   26   28 2
  49   26   29 1
  50   27   47 1
  51   28   48 1
  52   28   49 1
  53   29   50 1
  54   29   51 1
  55   29   52 1

#	End of record

