#	Name: ASD01915118
#	Creating user name:	WinNT
#	Creation time:	15. 06. 2019 20:04

#	Modifying user name:	WinNT
#	Modification time:	15. 06. 2019 20:04

#	Program:	/corina/corina34_cracker 3.40 0067  02.08.2006

@<TRIPOS>MOLECULE
ASD01915118
  43   46    0    0    0
SMALL
NO_CHARGES


@<TRIPOS>ATOM
   1 C1            -0.0169     1.3924     0.0097 C.ar    
   2 C2             0.0021    -0.0041     0.0020 C.ar    
   3 N3            -1.1430    -0.6903     0.0092 N.ar    
   4 C4            -2.3136    -0.0965     0.0236 C.ar    
   5 C5            -2.4136     1.2863     0.0320 C.ar    
   6 C6            -1.2657     2.0479     0.0305 C.ar    
   7 C7             1.3286     1.9586    -0.0001 C.2     
   8 C8             2.3057     1.0550    -0.0143 C.2     
   9 S9             1.6661    -0.5765    -0.0169 S.3     
  10 C10            1.5853     3.4182     0.0053 C.ar    
  11 C11            1.2153     4.1896     1.1063 C.ar    
  12 C12            1.4570     5.5481     1.1063 C.ar    
  13 C13            2.0652     6.1455     0.0155 C.ar    
  14 C14            2.4346     5.3842    -1.0803 C.ar    
  15 C15            2.2028     4.0241    -1.0883 C.ar    
  16 Cl16           2.3654     7.8553     0.0216 Cl      
  17 S17            4.0231     1.4489    -0.0291 S.o2    
  18 C18            4.4814     1.5411     1.7236 C.3     
  19 O19            4.6352     0.3247    -0.6461 O.2     
  20 O20            4.0822     2.7360    -0.6284 O.2     
  21 C21            5.9350     2.0025     1.8471 C.3     
  22 C22            6.3216     2.0803     3.3254 C.3     
  23 C23            5.4075     3.0778     4.0398 C.3     
  24 C24            3.9539     2.6164     3.9163 C.3     
  25 C25            3.5673     2.5386     2.4380 C.3     
  26 H26           -3.2129    -0.6945     0.0286 H       
  27 H27           -3.3830     1.7623     0.0435 H       
  28 H28           -1.3210     3.1265     0.0370 H       
  29 H29            0.7401     3.7247     1.9575 H       
  30 H30            1.1709     6.1465     1.9586 H       
  31 H31            2.9088     5.8552    -1.9287 H       
  32 H32            2.4916     3.4311    -1.9435 H       
  33 H33            4.3725     0.5573     2.1799 H       
  34 H34            6.5862     1.2919     1.3381 H       
  35 H35            6.0439     2.9864     1.3908 H       
  36 H36            6.2127     1.0964     3.7817 H       
  37 H37            7.3571     2.4090     3.4133 H       
  38 H38            5.6829     3.1332     5.0929 H       
  39 H39            5.5163     4.0617     3.5835 H       
  40 H40            3.8450     1.6325     4.3726 H       
  41 H41            3.3027     3.3270     4.4253 H       
  42 H42            3.6762     3.5225     1.9817 H       
  43 H43            2.5318     2.2099     2.3501 H       
@<TRIPOS>BOND
   1    1    2 ar
   2    1    7 1
   3    1    6 ar
   4    2    3 ar
   5    2    9 1
   6    3    4 ar
   7    4    5 ar
   8    4   26 1
   9    5    6 ar
  10    5   27 1
  11    6   28 1
  12    7    8 2
  13    7   10 1
  14    8    9 1
  15    8   17 1
  16   10   11 ar
  17   10   15 ar
  18   11   12 ar
  19   11   29 1
  20   12   13 ar
  21   12   30 1
  22   13   14 ar
  23   13   16 1
  24   14   15 ar
  25   14   31 1
  26   15   32 1
  27   17   18 1
  28   17   19 2
  29   17   20 2
  30   18   21 1
  31   18   25 1
  32   18   33 1
  33   21   22 1
  34   21   34 1
  35   21   35 1
  36   22   23 1
  37   22   36 1
  38   22   37 1
  39   23   24 1
  40   23   38 1
  41   23   39 1
  42   24   25 1
  43   24   40 1
  44   24   41 1
  45   25   42 1
  46   25   43 1

#	End of record

