#	Name: ASD05303026
#	Creating user name:	WinNT
#	Creation time:	15. 06. 2019 20:58

#	Modifying user name:	WinNT
#	Modification time:	15. 06. 2019 20:58

#	Program:	/corina/corina34_cracker 3.40 0067  02.08.2006

@<TRIPOS>MOLECULE
ASD05303026
  27   29    0    0    0
SMALL
NO_CHARGES


@<TRIPOS>ATOM
   1 C1             0.1192     1.5353    -0.4071 C.ar    
   2 C2             0.0887     0.1596    -0.5367 C.ar    
   3 C3             1.2498    -0.5769    -0.3800 C.ar    
   4 C4             2.4402     0.0677    -0.0936 C.ar    
   5 C5             2.4752     1.4546     0.0344 C.ar    
   6 C6             1.3071     2.1839    -0.1225 C.ar    
   7 O7             3.6421     2.0922     0.3072 O.3     
   8 N8             3.6278    -0.6675     0.0769 N.am    
   9 C9             4.7078     1.3826     0.7581 C.ar    
  10 C10            4.7285    -0.0065     0.6526 C.ar    
  11 C11            5.8191    -0.7249     1.1095 C.ar    
  12 C12            6.8929    -0.0603     1.6756 C.ar    
  13 C13            6.8748     1.3174     1.7839 C.ar    
  14 C14            5.7869     2.0396     1.3281 C.ar    
  15 C15            3.7080    -1.9597    -0.2976 C.2     
  16 O16            2.6950    -2.5844    -0.5473 O.2     
  17 N17            4.9109    -2.5596    -0.3953 N.am    
  18 H18           -0.7884     2.1070    -0.5331 H       
  19 H19           -0.8419    -0.3409    -0.7601 H       
  20 H20            1.2268    -1.6519    -0.4807 H       
  21 H21            1.3246     3.2592    -0.0230 H       
  22 H22            5.8323    -1.8015     1.0249 H       
  23 H23            7.7454    -0.6186     2.0333 H       
  24 H24            7.7140     1.8326     2.2275 H       
  25 H25            5.7788     3.1160     1.4150 H       
  26 H26            5.7224    -2.0310    -0.3397 H       
  27 H27            4.9652    -3.5198    -0.5213 H       
@<TRIPOS>BOND
   1    1    2 ar
   2    1    6 ar
   3    1   18 1
   4    2    3 ar
   5    2   19 1
   6    3    4 ar
   7    3   20 1
   8    4    5 ar
   9    4    8 1
  10    5    6 ar
  11    5    7 1
  12    6   21 1
  13    7    9 1
  14    8   10 1
  15    8   15 am
  16    9   10 ar
  17    9   14 ar
  18   10   11 ar
  19   11   12 ar
  20   11   22 1
  21   12   13 ar
  22   12   23 1
  23   13   14 ar
  24   13   24 1
  25   14   25 1
  26   15   16 2
  27   15   17 am
  28   17   26 1
  29   17   27 1

#	End of record

