#	Name: ASD00120029
#	Creating user name:	WinNT
#	Creation time:	15. 06. 2019 18:31

#	Modifying user name:	WinNT
#	Modification time:	15. 06. 2019 18:31

#	Program:	/corina/corina34_cracker 3.40 0067  02.08.2006

@<TRIPOS>MOLECULE
ASD00120029
  73   74    0    0    0
SMALL
NO_CHARGES


@<TRIPOS>ATOM
   1 C1             2.8173     0.5730     0.8442 C.ar    
   2 C2             3.8459    -0.3067     1.1410 C.ar    
   3 C3             5.1619     0.1455     1.1546 C.ar    
   4 C4             5.4379     1.4735     0.8713 C.ar    
   5 C5             4.4070     2.3460     0.5760 C.ar    
   6 C6             3.0995     1.8967     0.5625 C.ar    
   7 O7             3.5700    -1.6090     1.4188 O.3     
   8 C8             2.1965    -2.0023     1.3868 C.3     
   9 O9             6.1748    -0.7139     1.4458 O.3     
  10 C10            7.5003    -0.1799     1.4412 C.3     
  11 C11            1.9796     2.8520     0.2399 C.3     
  12 C12            1.3358     2.4530    -1.0895 C.3     
  13 C13            0.2444     3.4625    -1.4510 C.3     
  14 C14           -0.4171     3.0490    -2.7672 C.3     
  15 N15           -1.4649     4.0182    -3.1142 N.3     
  16 C16           -1.9597     3.7925    -4.4789 C.3     
  17 C17           -2.8590     4.9584    -4.8946 C.3     
  18 C18           -3.3666     4.7269    -6.2946 C.ar    
  19 C19           -2.6431     5.1937    -7.3767 C.ar    
  20 C20           -4.5511     4.0435    -6.4943 C.ar    
  21 C21           -5.0206     3.8277    -7.7770 C.ar    
  22 C22           -4.3035     4.2973    -8.8652 C.ar    
  23 C23           -3.1080     4.9814    -8.6642 C.ar    
  24 C24            0.9291     2.8003     1.3511 C.3     
  25 C25            2.5368     4.2728     0.1305 C.3     
  26 C26            3.2365     4.6483     1.4383 C.3     
  27 C27            3.5404     4.3397    -1.0223 C.3     
  28 C28           -2.5650     3.9751    -2.1416 C.3     
  29 O29           -2.3980     5.4402    -9.7295 O.3     
  30 O30           -4.7638     4.0859   -10.1273 O.3     
  31 C31           -1.1806     6.1334    -9.4477 C.3     
  32 C32           -5.9946     3.3717   -10.2578 C.3     
  33 H33            1.7955     0.2236     0.8286 H       
  34 H34            6.4583     1.8271     0.8815 H       
  35 H35            4.6234     3.3808     0.3553 H       
  36 H36            1.6351    -1.4214     2.1186 H       
  37 H37            1.7903    -1.8227     0.3914 H       
  38 H38            2.1165    -3.0627     1.6260 H       
  39 H39            7.7285     0.2175     0.4522 H       
  40 H40            7.5727     0.6189     2.1793 H       
  41 H41            8.2107    -0.9687     1.6886 H       
  42 H42            2.0946     2.4424    -1.8719 H       
  43 H43            0.8959     1.4600    -0.9965 H       
  44 H44           -0.5048     3.4865    -0.6596 H       
  45 H45            0.6874     4.4522    -1.5622 H       
  46 H46            0.3322     3.0249    -3.5585 H       
  47 H47           -0.8600     2.0592    -2.6560 H       
  48 H48           -1.1153     3.7226    -5.1646 H       
  49 H49           -2.5305     2.8645    -4.5096 H       
  50 H50           -3.7034     5.0283    -4.2090 H       
  51 H51           -2.2882     5.8865    -4.8639 H       
  52 H52           -1.7158     5.7242    -7.2180 H       
  53 H53           -5.1112     3.6769    -5.6468 H       
  54 H54           -5.9462     3.2928    -7.9304 H       
  55 H55            1.3878     3.0846     2.2982 H       
  56 H56            0.1191     3.4913     1.1178 H       
  57 H57            0.5322     1.7881     1.4290 H       
  58 H58            1.7202     4.9698    -0.0577 H       
  59 H59            3.8380     3.8072     1.7830 H       
  60 H60            3.8808     5.5113     1.2708 H       
  61 H61            2.4891     4.8938     2.1928 H       
  62 H62            3.0091     4.5215    -1.9565 H       
  63 H63            4.2469     5.1500    -0.8425 H       
  64 H64            4.0803     3.3951    -1.0893 H       
  65 H65           -2.1823     4.2144    -1.1494 H       
  66 H66           -3.3269     4.7023    -2.4223 H       
  67 H67           -3.0020     2.9766    -2.1314 H       
  68 H68           -0.7150     6.4448   -10.3827 H       
  69 H69           -1.3951     7.0115    -8.8385 H       
  70 H70           -0.5031     5.4727    -8.9068 H       
  71 H71           -5.8888     2.3814    -9.8150 H       
  72 H72           -6.7870     3.9165    -9.7445 H       
  73 H73           -6.2470     3.2725   -11.3136 H       
@<TRIPOS>BOND
   1    1    2 ar
   2    1    6 ar
   3    1   33 1
   4    2    3 ar
   5    2    7 1
   6    3    4 ar
   7    3    9 1
   8    4    5 ar
   9    4   34 1
  10    5    6 ar
  11    5   35 1
  12    6   11 1
  13    7    8 1
  14    8   36 1
  15    8   37 1
  16    8   38 1
  17    9   10 1
  18   10   39 1
  19   10   40 1
  20   10   41 1
  21   11   12 1
  22   11   24 1
  23   11   25 1
  24   12   13 1
  25   12   42 1
  26   12   43 1
  27   13   14 1
  28   13   44 1
  29   13   45 1
  30   14   15 1
  31   14   46 1
  32   14   47 1
  33   15   16 1
  34   15   28 1
  35   16   17 1
  36   16   48 1
  37   16   49 1
  38   17   18 1
  39   17   50 1
  40   17   51 1
  41   18   20 ar
  42   18   19 ar
  43   19   23 ar
  44   19   52 1
  45   20   21 ar
  46   20   53 1
  47   21   22 ar
  48   21   54 1
  49   22   23 ar
  50   22   30 1
  51   23   29 1
  52   24   55 1
  53   24   56 1
  54   24   57 1
  55   25   26 1
  56   25   27 1
  57   25   58 1
  58   26   59 1
  59   26   60 1
  60   26   61 1
  61   27   62 1
  62   27   63 1
  63   27   64 1
  64   28   65 1
  65   28   66 1
  66   28   67 1
  67   29   31 1
  68   30   32 1
  69   31   68 1
  70   31   69 1
  71   31   70 1
  72   32   71 1
  73   32   72 1
  74   32   73 1

#	End of record

