#	Name: ASD01840117
#	Creating user name:	WinNT
#	Creation time:	15. 06. 2019 19:37

#	Modifying user name:	WinNT
#	Modification time:	15. 06. 2019 19:37

#	Program:	/corina/corina34_cracker 3.40 0067  02.08.2006

@<TRIPOS>MOLECULE
ASD01840117
  28   30    0    0    0
SMALL
NO_CHARGES


@<TRIPOS>ATOM
   1 N1            -0.0180     1.4725     0.0101 N.3     
   2 C2             0.0021    -0.0041     0.0020 C.3     
   3 C3             1.0021    -0.5016     1.0475 C.3     
   4 C4             0.6646     0.0871     2.4204 C.3     
   5 C5             0.5874     1.6197     2.2895 C.3     
   6 C6             1.8244     2.0689     1.4707 C.3     
   7 C7             1.3777     1.9721    -0.0005 C.3     
   8 C8            -0.5818     1.9197     1.3126 C.3     
   9 N9             3.1320     5.2568     2.7167 N.pl3   
  10 N10            3.0878     3.8568     2.6964 N.2     
  11 C11            2.1940     3.4888     1.8146 C.2     
  12 C12            1.6412     4.6408     1.2459 C.2     
  13 C13            2.2351     5.7137     1.8179 C.2     
  14 H14           -0.9919    -0.3828     0.2401 H       
  15 H15            0.3004    -0.3585    -0.9846 H       
  16 H16            0.9589    -1.5895     1.1001 H       
  17 H17            2.0080    -0.1952     0.7601 H       
  18 H18           -0.2963    -0.3004     2.7589 H       
  19 H19            1.4429    -0.1806     3.1350 H       
  20 H20            0.5019     2.1261     3.2509 H       
  21 H21            2.6656     1.4011     1.6567 H       
  22 H22            2.0192     1.2753    -0.5401 H       
  23 H23            1.4183     2.9558    -0.4682 H       
  24 H24           -0.8093     2.9855     1.2931 H       
  25 H25           -1.4664     1.3388     1.5740 H       
  26 H26            3.7034     5.8016     3.2803 H       
  27 H27            0.8753     4.6691     0.4850 H       
  28 H28            2.0284     6.7501     1.5951 H       
@<TRIPOS>BOND
   1    1    2 1
   2    1    7 1
   3    1    8 1
   4    2    3 1
   5    2   14 1
   6    2   15 1
   7    3    4 1
   8    3   16 1
   9    3   17 1
  10    4    5 1
  11    4   18 1
  12    4   19 1
  13    5    6 1
  14    5    8 1
  15    5   20 1
  16    6    7 1
  17    6   11 1
  18    6   21 1
  19    7   22 1
  20    7   23 1
  21    8   24 1
  22    8   25 1
  23    9   10 1
  24    9   13 1
  25    9   26 1
  26   10   11 2
  27   11   12 1
  28   12   13 2
  29   12   27 1
  30   13   28 1

#	End of record

