#	Name: ASD03240065
#	Creating user name:	WinNT
#	Creation time:	15. 06. 2019 20:34

#	Modifying user name:	WinNT
#	Modification time:	15. 06. 2019 20:34

#	Program:	/corina/corina34_cracker 3.40 0067  02.08.2006

@<TRIPOS>MOLECULE
ASD03240065
  69   75    0    0    0
SMALL
NO_CHARGES


@<TRIPOS>ATOM
   1 C1            -0.0172     1.4153     0.0098 C.ar    
   2 C2             0.0021    -0.0041     0.0020 C.ar    
   3 C3             1.1962     2.1233     0.0020 C.ar    
   4 C4             2.3734     1.3934    -0.0132 C.ar    
   5 C5             2.3151    -0.0203    -0.0203 C.ar    
   6 N6             1.1635    -0.6604    -0.0122 N.ar    
   7 C7             3.5763    -0.7976    -0.0371 C.ar    
   8 C8             3.6831     2.0875    -0.0224 C.ar    
   9 C9             3.9294     3.1048    -0.9434 C.ar    
  10 C10            5.1505     3.7477    -0.9470 C.ar    
  11 C11            6.1292     3.3844    -0.0394 C.ar    
  12 C12            5.8905     2.3758     0.8768 C.ar    
  13 C13            4.6712     1.7296     0.8936 C.ar    
  14 C14            3.6607    -2.0097     0.6473 C.ar    
  15 C15            4.8379    -2.7294     0.6276 C.ar    
  16 C16            5.9331    -2.2506    -0.0689 C.ar    
  17 C17            5.8555    -1.0486    -0.7493 C.ar    
  18 C18            4.6818    -0.3229    -0.7421 C.ar    
  19 C19            7.2159    -3.0412    -0.0860 C.3     
  20 N20            7.2045    -3.9682    -1.2255 N.3     
  21 C21            8.5241    -4.5837    -1.4163 C.3     
  22 C22            8.5151    -5.4274    -2.6931 C.3     
  23 C23            7.4384    -6.5098    -2.5762 C.3     
  24 C24            6.0815    -5.8445    -2.3296 C.3     
  25 C25            6.1611    -4.9887    -1.0633 C.3     
  26 C26            7.3839    -7.3062    -3.8544 C.2     
  27 N27            7.5961    -8.6144    -3.9562 N.2     
  28 C28            7.4712    -8.9899    -5.2126 C.2     
  29 N29            7.1697    -7.8929    -5.9441 N.pl3   
  30 N30            7.1148    -6.8203    -5.0392 N.2     
  31 C31           -1.2283    -0.6857     0.0101 C.ar    
  32 N32           -2.3530    -0.0105     0.0245 N.ar    
  33 C33           -2.3967     1.3141     0.0320 C.ar    
  34 C34           -1.2618     2.0686     0.0310 C.ar    
  35 C35            7.6329   -10.3667    -5.7315 C.ar    
  36 N36            7.4778   -10.6040    -7.0284 N.ar    
  37 C37            7.6131   -11.8143    -7.5296 C.ar    
  38 C38            7.9235   -12.8895    -6.7166 C.ar    
  39 C39            8.0943   -12.6861    -5.3545 C.ar    
  40 C40            7.9524   -11.4031    -4.8551 C.ar    
  41 H41            1.2107     3.2032     0.0074 H       
  42 H42            3.1663     3.3888    -1.6529 H       
  43 H43            5.3425     4.5359    -1.6600 H       
  44 H44            7.0836     3.8899    -0.0464 H       
  45 H45            6.6583     2.0964     1.5830 H       
  46 H46            4.4858     0.9426     1.6096 H       
  47 H47            2.8066    -2.3842     1.1920 H       
  48 H48            4.9045    -3.6682     1.1573 H       
  49 H49            6.7139    -0.6796    -1.2910 H       
  50 H50            4.6225     0.6153    -1.2737 H       
  51 H51            8.0614    -2.3599    -0.1803 H       
  52 H52            7.3066    -3.6066     0.8415 H       
  53 H53            9.2799    -3.8030    -1.5022 H       
  54 H54            8.7550    -5.2201    -0.5621 H       
  55 H55            8.2978    -4.7891    -3.5496 H       
  56 H56            9.4899    -5.8966    -2.8262 H       
  57 H57            7.6763    -7.1717    -1.7434 H       
  58 H58            5.8260    -5.2128    -3.1803 H       
  59 H59            5.3177    -6.6117    -2.2029 H       
  60 H60            6.4031    -5.6233    -0.2107 H       
  61 H61            5.2007    -4.5022    -0.8928 H       
  62 H62            7.0183    -7.8551    -6.9015 H       
  63 H63           -1.2471    -1.7655     0.0042 H       
  64 H64           -3.3568     1.8085     0.0438 H       
  65 H65           -1.3175     3.1471     0.0376 H       
  66 H66            7.4795   -11.9696    -8.5900 H       
  67 H67            8.0315   -13.8781    -7.1378 H       
  68 H68            8.3366   -13.5099    -4.6994 H       
  69 H69            8.0790   -11.2089    -3.8002 H       
@<TRIPOS>BOND
   1    1    2 ar
   2    1    3 ar
   3    1   34 ar
   4    2   31 ar
   5    2    6 ar
   6    3    4 ar
   7    3   41 1
   8    4    5 ar
   9    4    8 1
  10    5    6 ar
  11    5    7 1
  12    7   14 ar
  13    7   18 ar
  14    8    9 ar
  15    8   13 ar
  16    9   10 ar
  17    9   42 1
  18   10   11 ar
  19   10   43 1
  20   11   12 ar
  21   11   44 1
  22   12   13 ar
  23   12   45 1
  24   13   46 1
  25   14   15 ar
  26   14   47 1
  27   15   16 ar
  28   15   48 1
  29   16   17 ar
  30   16   19 1
  31   17   18 ar
  32   17   49 1
  33   18   50 1
  34   19   20 1
  35   19   51 1
  36   19   52 1
  37   20   21 1
  38   20   25 1
  39   21   22 1
  40   21   53 1
  41   21   54 1
  42   22   23 1
  43   22   55 1
  44   22   56 1
  45   23   24 1
  46   23   26 1
  47   23   57 1
  48   24   25 1
  49   24   58 1
  50   24   59 1
  51   25   60 1
  52   25   61 1
  53   26   27 1
  54   26   30 2
  55   27   28 2
  56   28   29 1
  57   28   35 1
  58   29   30 1
  59   29   62 1
  60   31   32 ar
  61   31   63 1
  62   32   33 ar
  63   33   34 ar
  64   33   64 1
  65   34   65 1
  66   35   36 ar
  67   35   40 ar
  68   36   37 ar
  69   37   38 ar
  70   37   66 1
  71   38   39 ar
  72   38   67 1
  73   39   40 ar
  74   39   68 1
  75   40   69 1

#	End of record

