#	Name: ASD04882133
#	Creating user name:	WinNT
#	Creation time:	15. 06. 2019 20:54

#	Modifying user name:	WinNT
#	Modification time:	15. 06. 2019 20:54

#	Program:	/corina/corina34_cracker 3.40 0067  02.08.2006

@<TRIPOS>MOLECULE
ASD04882133
  76   80    0    0    0
SMALL
NO_CHARGES


@<TRIPOS>ATOM
   1 C1             0.4252     1.4608     0.7287 C.ar    
   2 C2             0.3581     0.0139     0.4243 C.2     
   3 O3            -0.6478    -0.4574    -0.0692 O.2     
   4 N4             1.4124    -0.7811     0.6942 N.am    
   5 C5             1.3112    -2.1658     0.5085 C.ar    
   6 C6             2.4296    -2.9013     0.1049 C.ar    
   7 C7             2.3305    -4.2752    -0.0797 C.ar    
   8 C8             1.1305    -4.9172     0.1338 C.ar    
   9 C9             0.0088    -4.1882     0.5373 C.ar    
  10 C10            0.1072    -2.8070     0.7297 C.ar    
  11 N11            3.6442    -2.2563    -0.1129 N.3     
  12 C12            3.5606    -1.3521    -1.2683 C.3     
  13 C13            4.8872    -0.6053    -1.4254 C.3     
  14 N14            5.9759    -1.5771    -1.5985 N.3     
  15 C15            6.0595    -2.4813    -0.4431 C.3     
  16 C16            4.7329    -3.2281    -0.2861 C.3     
  17 C17            7.1944    -0.9301    -1.8170 C.ar    
  18 C18            7.3981    -0.2050    -2.9845 C.ar    
  19 C19            9.6079     0.3520    -2.2497 C.ar    
  20 C20            8.2029    -1.0054    -0.8651 C.ar    
  21 C21            8.6037     0.4337    -3.1971 C.ar    
  22 C22            9.4064    -0.3640    -1.0841 C.ar    
  23 C23           -1.2763    -4.8760     0.7654 C.2     
  24 N24           -1.3690    -6.2084     0.5845 N.am    
  25 O25           -2.2519    -4.2408     1.1165 O.2     
  26 C26           -2.6451    -6.8913     0.8110 C.3     
  27 C27           -2.4784    -8.3874     0.5375 C.3     
  28 C28           -3.8111    -9.1007     0.7740 C.3     
  29 N29           -3.6515   -10.5333     0.5122 N.am    
  30 C30           -3.2933   -11.4384     1.4392 C.2     
  31 C31           -3.8682   -11.1655    -0.7945 C.3     
  32 C32           -3.1787   -12.5449    -0.7043 C.3     
  33 C33           -3.2161   -12.8160     0.8187 C.3     
  34 O34           -3.0646   -11.1872     2.6034 O.2     
  35 C35            6.3048    -0.1162    -4.0178 C.3     
  36 N36            1.5269     1.9692     1.2676 N.ar    
  37 C37            1.6284     3.2483     1.5536 C.ar    
  38 C38            0.5777     4.1203     1.3004 C.ar    
  39 C39           -0.5930     3.6289     0.7371 C.ar    
  40 C40           -0.6669     2.2782     0.4416 C.ar    
  41 F41            0.6929     5.4328     1.5992 F       
  42 H42            2.2414    -0.3944     1.0170 H       
  43 H43            3.1961    -4.8408    -0.3916 H       
  44 H44            1.0565    -5.9849    -0.0112 H       
  45 H45           -0.7569    -2.2416     1.0459 H       
  46 H46            3.3604    -1.9314    -2.1697 H       
  47 H47            2.7556    -0.6342    -1.1108 H       
  48 H48            4.8375     0.0446    -2.2990 H       
  49 H49            5.0740    -0.0047    -0.5351 H       
  50 H50            6.8645    -3.1992    -0.6006 H       
  51 H51            6.2597    -1.9021     0.4583 H       
  52 H52            4.7826    -3.8780     0.5876 H       
  53 H53            4.5461    -3.8287    -1.1763 H       
  54 H54           10.5501     0.8523    -2.4186 H       
  55 H55            8.0462    -1.5645     0.0455 H       
  56 H56            8.7627     0.9975    -4.1044 H       
  57 H57           10.1927    -0.4259    -0.3463 H       
  58 H58           -0.5907    -6.7151     0.3044 H       
  59 H59           -2.9578    -6.7435     1.8446 H       
  60 H60           -3.4005    -6.4814     0.1406 H       
  61 H61           -2.1656    -8.5352    -0.4961 H       
  62 H62           -1.7229    -8.7974     1.2078 H       
  63 H63           -4.1239    -8.9529     1.8077 H       
  64 H64           -4.5666    -8.6908     0.1037 H       
  65 H65           -4.9349   -11.2885    -0.9817 H       
  66 H66           -3.4126   -10.5669    -1.5833 H       
  67 H67           -3.7459   -13.3007    -1.2475 H       
  68 H68           -2.1527   -12.4927    -1.0686 H       
  69 H69           -2.3081   -13.3278     1.1375 H       
  70 H70           -4.0973   -13.4018     1.0803 H       
  71 H71            5.7205     0.7889    -3.8518 H       
  72 H72            6.7475    -0.0854    -5.0134 H       
  73 H73            5.6556    -0.9879    -3.9358 H       
  74 H74            2.5406     3.6257     1.9915 H       
  75 H75           -1.4248     4.2860     0.5303 H       
  76 H76           -1.5617     1.8621     0.0027 H       
@<TRIPOS>BOND
   1    1    2 1
   2    1   36 ar
   3    1   40 ar
   4    2    3 2
   5    2    4 am
   6    4    5 1
   7    4   42 1
   8    5    6 ar
   9    5   10 ar
  10    6    7 ar
  11    6   11 1
  12    7    8 ar
  13    7   43 1
  14    8    9 ar
  15    8   44 1
  16    9   10 ar
  17    9   23 1
  18   10   45 1
  19   11   12 1
  20   11   16 1
  21   12   13 1
  22   12   46 1
  23   12   47 1
  24   13   14 1
  25   13   48 1
  26   13   49 1
  27   14   15 1
  28   14   17 1
  29   15   16 1
  30   15   50 1
  31   15   51 1
  32   16   52 1
  33   16   53 1
  34   17   18 ar
  35   17   20 ar
  36   18   21 ar
  37   18   35 1
  38   19   21 ar
  39   19   22 ar
  40   19   54 1
  41   20   22 ar
  42   20   55 1
  43   21   56 1
  44   22   57 1
  45   23   24 am
  46   23   25 2
  47   24   26 1
  48   24   58 1
  49   26   27 1
  50   26   59 1
  51   26   60 1
  52   27   28 1
  53   27   61 1
  54   27   62 1
  55   28   29 1
  56   28   63 1
  57   28   64 1
  58   29   30 am
  59   29   31 1
  60   30   34 2
  61   30   33 1
  62   31   32 1
  63   31   65 1
  64   31   66 1
  65   32   33 1
  66   32   67 1
  67   32   68 1
  68   33   69 1
  69   33   70 1
  70   35   71 1
  71   35   72 1
  72   35   73 1
  73   36   37 ar
  74   37   38 ar
  75   37   74 1
  76   38   39 ar
  77   38   41 1
  78   39   40 ar
  79   39   75 1
  80   40   76 1

#	End of record

