#	Name: ASD01028728
#	Creating user name:	WinNT
#	Creation time:	15. 06. 2019 18:58

#	Modifying user name:	WinNT
#	Modification time:	15. 06. 2019 18:58

#	Program:	/corina/corina34_cracker 3.40 0067  02.08.2006

@<TRIPOS>MOLECULE
ASD01028728
  65   70    0    0    0
SMALL
NO_CHARGES


@<TRIPOS>ATOM
   1 N1            -0.0157     1.3060     0.0092 N.ar    
   2 C2             0.0021    -0.0041     0.0020 C.ar    
   3 C3             1.2021    -0.7221    -0.0133 C.ar    
   4 C4             2.3969    -0.0518    -0.0211 C.ar    
   5 C5             2.3684     1.3549    -0.0132 C.ar    
   6 C6             3.5529     2.1090    -0.0204 C.ar    
   7 C7             3.4849     3.4690    -0.0125 C.ar    
   8 C8             2.2549     4.1229     0.0031 C.ar    
   9 C9             1.0873     3.4233     0.0109 C.ar    
  10 C10            1.1159     2.0180     0.0022 C.ar    
  11 O11            1.1831    -2.0810    -0.0200 O.3     
  12 C12           -0.0990    -2.7119    -0.0107 C.3     
  13 C13            0.0802    -4.2314    -0.0201 C.3     
  14 C14           -1.2926    -4.9069    -0.0102 C.3     
  15 O15           -1.1768    -8.9455     1.0896 O.3     
  16 C16           -2.1856    -8.5627     0.1509 C.3     
  17 C17           -2.3988    -7.0486     0.2281 C.3     
  18 N18           -1.1205    -6.3658    -0.0192 N.3     
  19 C19           -0.1086    -6.7830     0.9622 C.3     
  20 C20            0.0816    -8.2998     0.8777 C.3     
  21 C21            4.7568     4.2772    -0.0202 C.3     
  22 C22            6.2326     5.2507    -3.2152 C.2     
  23 C23            7.2494     5.9049    -3.9427 C.2     
  24 C24            8.2506     6.5338    -3.2708 C.2     
  25 C25            8.2583     6.5232    -1.8565 C.2     
  26 C26            7.2693     5.8876    -1.1731 C.2     
  27 N27            6.2630     5.2550    -1.8430 N.pl3   
  28 N28            4.5340     4.1664    -2.5208 N.2     
  29 N29            5.1526     4.5745    -3.5727 N.2     
  30 C30            5.1673     4.5542    -1.4435 C.2     
  31 N31           10.6726     8.7583    -0.3178 N.pl3   
  32 N32           11.0990     7.5204     0.1783 N.2     
  33 C33           10.3123     6.5903    -0.2951 C.2     
  34 C34            9.3491     7.2078    -1.1161 C.2     
  35 C35            9.6001     8.5483    -1.1086 C.2     
  36 C36           11.2820    10.0577    -0.0238 C.3     
  37 F37            7.2287     5.9060    -5.2935 F       
  38 F38            4.5441     5.4879     0.6478 F       
  39 F39            5.7692     3.5597     0.6259 F       
  40 H40           -0.9337    -0.5432     0.0084 H       
  41 H41            3.3343    -0.5880    -0.0325 H       
  42 H42            4.5124     1.6133    -0.0318 H       
  43 H43            2.2273     5.2025     0.0094 H       
  44 H44            0.1424     3.9461     0.0237 H       
  45 H45           -0.6432    -2.4158     0.8861 H       
  46 H46           -0.6605    -2.4068    -0.8937 H       
  47 H47            0.6243    -4.5275    -0.9170 H       
  48 H48            0.6417    -4.5365     0.8629 H       
  49 H49           -1.8368    -4.6108     0.8866 H       
  50 H50           -1.8541    -4.6018    -0.8932 H       
  51 H51           -1.8682    -8.8347    -0.8557 H       
  52 H52           -3.1180    -9.0741     0.3899 H       
  53 H53           -3.1256    -6.7445    -0.5252 H       
  54 H54           -2.7676    -6.7830     1.2188 H       
  55 H55            0.8363    -6.2851     0.7448 H       
  56 H56           -0.4408    -6.5131     1.9647 H       
  57 H57            0.7888    -8.6211     1.6423 H       
  58 H58            0.4649    -8.5642    -0.1078 H       
  59 H59            9.0358     7.0384    -3.8142 H       
  60 H60            7.2808     5.8831    -0.0932 H       
  61 H61           10.3879     5.5323    -0.0922 H       
  62 H62            9.0413     9.3048    -1.6397 H       
  63 H63           12.0567    10.2707    -0.7605 H       
  64 H64           10.5186    10.8346    -0.0645 H       
  65 H65           11.7243    10.0346     0.9722 H       
@<TRIPOS>BOND
   1    1    2 ar
   2    1   10 ar
   3    2    3 ar
   4    2   40 1
   5    3    4 ar
   6    3   11 1
   7    4    5 ar
   8    4   41 1
   9    5    6 ar
  10    5   10 ar
  11    6    7 ar
  12    6   42 1
  13    7    8 ar
  14    7   21 1
  15    8    9 ar
  16    8   43 1
  17    9   10 ar
  18    9   44 1
  19   11   12 1
  20   12   13 1
  21   12   45 1
  22   12   46 1
  23   13   14 1
  24   13   47 1
  25   13   48 1
  26   14   18 1
  27   14   49 1
  28   14   50 1
  29   15   16 1
  30   15   20 1
  31   16   17 1
  32   16   51 1
  33   16   52 1
  34   17   18 1
  35   17   53 1
  36   17   54 1
  37   18   19 1
  38   19   20 1
  39   19   55 1
  40   19   56 1
  41   20   57 1
  42   20   58 1
  43   21   30 1
  44   21   38 1
  45   21   39 1
  46   22   23 1
  47   22   27 1
  48   22   29 2
  49   23   24 2
  50   23   37 1
  51   24   25 1
  52   24   59 1
  53   25   26 2
  54   25   34 1
  55   26   27 1
  56   26   60 1
  57   27   30 1
  58   28   29 1
  59   28   30 2
  60   31   32 1
  61   31   35 1
  62   31   36 1
  63   32   33 2
  64   33   34 1
  65   33   61 1
  66   34   35 2
  67   35   62 1
  68   36   63 1
  69   36   64 1
  70   36   65 1

#	End of record

