#	Name: ASD01148204
#	Creating user name:	WinNT
#	Creation time:	15. 06. 2019 19:02

#	Modifying user name:	WinNT
#	Modification time:	15. 06. 2019 19:02

#	Program:	/corina/corina34_cracker 3.40 0067  02.08.2006

@<TRIPOS>MOLECULE
ASD01148204
  58   61    0    0    0
SMALL
NO_CHARGES


@<TRIPOS>ATOM
   1 C1             0.0856     2.6494     0.7015 C.ar    
   2 C2            -0.3622     1.3432     0.7604 C.ar    
   3 C3             0.5222     0.2995     0.5608 C.ar    
   4 C4             1.8542     0.5623     0.3019 C.ar    
   5 C5             2.3020     1.8690     0.2420 C.ar    
   6 C6             1.4181     2.9124     0.4429 C.ar    
   7 C7             3.7546     2.1555    -0.0393 C.3     
   8 O8             4.3251     1.1415    -0.8911 O.3     
   9 C9             3.9099     3.4239    -0.9119 C.3     
  10 C10            3.9704     2.8528    -2.3159 C.2     
  11 N11            4.1991     1.5854    -2.2276 N.2     
  12 C12            3.7974     3.6153    -3.5679 C.ar    
  13 C13            3.8776     2.9620    -4.8005 C.ar    
  14 C14            3.5478     4.9892    -3.5203 C.ar    
  15 C15            3.3860     5.7002    -4.6878 C.ar    
  16 C16            3.4715     5.0479    -5.9205 C.ar    
  17 C17            3.7158     3.6729    -5.9679 C.ar    
  18 C18            3.2979     5.8108    -7.1734 C.2     
  19 O19            2.2761     6.4400    -7.3650 O.2     
  20 N20            4.2728     5.8090    -8.1040 N.am    
  21 C21            4.5465     2.2856     1.2633 C.3     
  22 F22            4.4418     1.0969     1.9934 F       
  23 F23            5.8911     2.5351     0.9687 F       
  24 F24            4.0305     3.3439     2.0190 F       
  25 C25            4.0478     6.4504    -9.4018 C.3     
  26 C26            4.4685     7.8956    -9.3275 C.ar    
  27 N27            3.6216     8.7983    -8.8734 N.ar    
  28 C28            5.4546     5.2171    -7.8408 C.2     
  29 C29            3.9461    10.0740    -8.7906 C.ar    
  30 C30            5.1970    10.5119    -9.1814 C.ar    
  31 C31            6.1148     9.5915    -9.6644 C.ar    
  32 C32            5.7398     8.2585    -9.7310 C.ar    
  33 O33            5.6812     4.7806    -6.7301 O.2     
  34 O34            6.3839     5.1097    -8.8086 O.3     
  35 C35            7.6333     4.4606    -8.4537 C.3     
  36 C36            0.0341    -1.1247     0.6261 C.3     
  37 F37           -1.3380    -1.1354     0.8991 F       
  38 F38            0.2704    -1.7554    -0.6002 F       
  39 F39            0.7166    -1.8057     1.6398 F       
  40 H40           -0.6062     3.4649     0.8529 H       
  41 H41           -1.4031     1.1379     0.9627 H       
  42 H42            2.5453    -0.2530     0.1467 H       
  43 H43            1.7680     3.9330     0.3965 H       
  44 H44            3.0470     4.0801    -0.7979 H       
  45 H45            4.8327     3.9505    -0.6683 H       
  46 H46            4.0668     1.8993    -4.8371 H       
  47 H47            3.4814     5.4933    -2.5675 H       
  48 H48            3.1927     6.7621    -4.6510 H       
  49 H49            3.7819     3.1687    -6.9207 H       
  50 H50            4.6341     5.9400   -10.1658 H       
  51 H51            2.9896     6.3927    -9.6570 H       
  52 H52            3.2256    10.7846    -8.4133 H       
  53 H53            5.4565    11.5580    -9.1118 H       
  54 H54            7.0998     9.9050    -9.9774 H       
  55 H55            6.4292     7.5144   -10.1016 H       
  56 H56            8.1136     5.0138    -7.6466 H       
  57 H57            7.4326     3.4406    -8.1258 H       
  58 H58            8.2916     4.4402    -9.3221 H       
@<TRIPOS>BOND
   1    1    2 ar
   2    1    6 ar
   3    1   40 1
   4    2    3 ar
   5    2   41 1
   6    3    4 ar
   7    3   36 1
   8    4    5 ar
   9    4   42 1
  10    5    6 ar
  11    5    7 1
  12    6   43 1
  13    7    8 1
  14    7    9 1
  15    7   21 1
  16    8   11 1
  17    9   10 1
  18    9   44 1
  19    9   45 1
  20   10   11 2
  21   10   12 1
  22   12   13 ar
  23   12   14 ar
  24   13   17 ar
  25   13   46 1
  26   14   15 ar
  27   14   47 1
  28   15   16 ar
  29   15   48 1
  30   16   17 ar
  31   16   18 1
  32   17   49 1
  33   18   19 2
  34   18   20 am
  35   20   25 1
  36   20   28 am
  37   21   22 1
  38   21   23 1
  39   21   24 1
  40   25   26 1
  41   25   50 1
  42   25   51 1
  43   26   27 ar
  44   26   32 ar
  45   27   29 ar
  46   28   33 2
  47   28   34 1
  48   29   30 ar
  49   29   52 1
  50   30   31 ar
  51   30   53 1
  52   31   32 ar
  53   31   54 1
  54   32   55 1
  55   34   35 1
  56   35   56 1
  57   35   57 1
  58   35   58 1
  59   36   37 1
  60   36   38 1
  61   36   39 1

#	End of record

