#	Name: ASD09790002
#	Creating user name:	WinNT
#	Creation time:	15. 06. 2019 21:23

#	Modifying user name:	WinNT
#	Modification time:	15. 06. 2019 21:23

#	Program:	/corina/corina34_cracker 3.40 0067  02.08.2006

@<TRIPOS>MOLECULE
ASD09790002
  25   27    0    0    0
SMALL
NO_CHARGES


@<TRIPOS>ATOM
   1 C1            -0.0180     1.4755     0.0102 C.2     
   2 C2             0.0021    -0.0041     0.0020 C.ar    
   3 C3             1.2160    -0.6575     0.2652 C.ar    
   4 O4             2.3393     0.0397     0.5288 O.3     
   5 C5             2.4416     1.3565     0.2580 C.ar    
   6 C6             1.2993     2.1360     0.0011 C.ar    
   7 C7            -1.1529    -0.7367    -0.2617 C.ar    
   8 C8            -1.0984    -2.1144    -0.2673 C.ar    
   9 C9             0.0994    -2.7641    -0.0120 C.ar    
  10 C10            1.2477    -2.0483     0.2522 C.ar    
  11 C11            1.4174     3.5071    -0.2599 C.ar    
  12 C12            3.6895     1.9626     0.2300 C.ar    
  13 C13            3.8013     3.3187    -0.0366 C.ar    
  14 C14            2.6712     4.0911    -0.2795 C.ar    
  15 O15           -1.0585     2.1080     0.0186 O.2     
  16 O16            0.3106     4.2565    -0.4923 O.3     
  17 O17            5.0281     3.8985    -0.0619 O.3     
  18 H18           -2.0851    -0.2288    -0.4603 H       
  19 H19           -1.9904    -2.6883    -0.4705 H       
  20 H20            0.1332    -3.8435    -0.0197 H       
  21 H21            2.1736    -2.5682     0.4495 H       
  22 H22            4.5768     1.3760     0.4169 H       
  23 H23            2.7721     5.1469    -0.4828 H       
  24 H24           -0.0764     4.6440     0.3047 H       
  25 H25            5.4487     3.8914    -0.9326 H       
@<TRIPOS>BOND
   1    1    2 1
   2    1    6 1
   3    1   15 2
   4    2    3 ar
   5    2    7 ar
   6    3    4 1
   7    3   10 ar
   8    4    5 1
   9    5   12 ar
  10    5    6 ar
  11    6   11 ar
  12    7    8 ar
  13    7   18 1
  14    8    9 ar
  15    8   19 1
  16    9   10 ar
  17    9   20 1
  18   10   21 1
  19   11   14 ar
  20   11   16 1
  21   12   13 ar
  22   12   22 1
  23   13   14 ar
  24   13   17 1
  25   14   23 1
  26   16   24 1
  27   17   25 1

#	End of record

