#	Name: ASD01918132
#	Creating user name:	WinNT
#	Creation time:	15. 06. 2019 20:10

#	Modifying user name:	WinNT
#	Modification time:	15. 06. 2019 20:10

#	Program:	/corina/corina34_cracker 3.40 0067  02.08.2006

@<TRIPOS>MOLECULE
ASD01918132
  38   41    0    0    0
SMALL
NO_CHARGES


@<TRIPOS>ATOM
   1 N1             4.8426    -0.3803    -2.1591 N.ar    
   2 C2             5.3055     0.3139    -3.1775 C.ar    
   3 C3             5.1829     1.7046    -3.2066 C.ar    
   4 C4             4.5587     2.3516    -2.1340 C.ar    
   5 C5             4.0869     1.5756    -1.0831 C.ar    
   6 C6             4.2493     0.1976    -1.1326 C.ar    
   7 O7             3.4742     2.1581    -0.0191 O.3     
   8 C8             3.4423     3.5168     0.0343 C.2     
   9 N9             2.1728     5.5180    -0.0252 N.pl3   
  10 C10            2.2534     4.1630    -0.0729 C.2     
  11 C11            4.6354     4.2291     0.2047 C.2     
  12 C12            4.5946     5.6179     0.2587 C.2     
  13 C13            3.2958     6.2792     0.1341 C.2     
  14 C14            5.8275     6.4031     0.4374 C.2     
  15 N15            5.7682     7.7486     0.4874 N.am    
  16 O16            6.8993     5.8373     0.5398 O.2     
  17 N17            1.1015     6.4194    -0.1088 N.2     
  18 C18            1.6049     7.6266    -0.0068 C.2     
  19 N19            2.9209     7.5486     0.1442 N.2     
  20 C20            5.6879     2.4566    -4.3157 C.1     
  21 C21            6.9310     8.4891     0.6559 C.2     
  22 N22            6.0886     3.0531    -5.1955 N.1     
  23 S23            8.4996     7.8272     0.8122 S.3     
  24 C24            9.1792     9.4456     0.9614 C.2     
  25 C25            8.1779    10.3240     0.8811 C.2     
  26 N26            6.9857     9.7832     0.7120 N.2     
  27 C27            8.3916    11.8131     0.9699 C.3     
  28 H28            5.7854    -0.1975    -3.9989 H       
  29 H29            4.4472     3.4258    -2.1236 H       
  30 H30            3.8840    -0.4105    -0.3182 H       
  31 H31            1.3495     3.5856    -0.1995 H       
  32 H32            5.5762     3.7061     0.2935 H       
  33 H33            4.9134     8.1998     0.4057 H       
  34 H34            1.0346     8.5433    -0.0346 H       
  35 H35           10.2238     9.6851     1.0949 H       
  36 H36            8.5631    12.2157    -0.0283 H       
  37 H37            7.5083    12.2817     1.4038 H       
  38 H38            9.2579    12.0190     1.5986 H       
@<TRIPOS>BOND
   1    1    2 ar
   2    1    6 ar
   3    2    3 ar
   4    2   28 1
   5    3    4 ar
   6    3   20 1
   7    4    5 ar
   8    4   29 1
   9    5    6 ar
  10    5    7 1
  11    6   30 1
  12    7    8 1
  13    8   11 1
  14    8   10 2
  15    9   10 1
  16    9   17 1
  17    9   13 1
  18   10   31 1
  19   11   12 2
  20   11   32 1
  21   12   13 1
  22   12   14 1
  23   13   19 2
  24   14   15 am
  25   14   16 2
  26   15   21 1
  27   15   33 1
  28   17   18 2
  29   18   19 1
  30   18   34 1
  31   20   22 3
  32   21   23 1
  33   21   26 2
  34   23   24 1
  35   24   25 2
  36   24   35 1
  37   25   26 1
  38   25   27 1
  39   27   36 1
  40   27   37 1
  41   27   38 1

#	End of record

