#	Name: ASD01816981
#	Creating user name:	WinNT
#	Creation time:	15. 06. 2019 19:36

#	Modifying user name:	WinNT
#	Modification time:	15. 06. 2019 19:36

#	Program:	/corina/corina34_cracker 3.40 0067  02.08.2006

@<TRIPOS>MOLECULE
ASD01816981
  56   60    0    0    0
SMALL
NO_CHARGES


@<TRIPOS>ATOM
   1 C1            -0.0168     1.3862     0.0097 C.ar    
   2 C2             0.0021    -0.0041     0.0020 C.ar    
   3 N3             1.1274    -0.6793    -0.0123 N.ar    
   4 C4             2.3109    -0.0604    -0.0203 C.ar    
   5 C5             2.3594     1.3548    -0.0132 C.ar    
   6 C6             1.1626     2.0821     0.0021 C.ar    
   7 C7             3.5128    -0.7990    -0.0362 C.ar    
   8 C8             4.7176    -0.1801    -0.0444 C.ar    
   9 C9             4.8189     1.2191    -0.0374 C.ar    
  10 C10            3.6595     2.0169    -0.0221 C.ar    
  11 C11            6.1194     1.9009    -0.0457 C.2     
  12 N12            6.1139     3.2542    -0.0381 N.am    
  13 C13            4.9427     3.9377    -0.0228 C.2     
  14 N14            3.7793     3.3548    -0.0160 N.2     
  15 O15            7.1626     1.2728    -0.0587 O.2     
  16 C16            3.4551    -2.3049    -0.0437 C.3     
  17 C17            3.2981    -2.7945    -1.4602 C.ar    
  18 C18            4.4177    -3.0639    -2.2255 C.ar    
  19 C19            4.2765    -3.5128    -3.5243 C.ar    
  20 C20            3.0098    -3.6934    -4.0606 C.ar    
  21 C21            1.8880    -3.4225    -3.2908 C.ar    
  22 C22            2.0346    -2.9791    -1.9906 C.ar    
  23 C23            7.3828     3.9864    -0.0458 C.3     
  24 C24            7.4525     4.8730    -1.2908 C.3     
  25 C25            7.4759     4.8589     1.2076 C.3     
  26 C26            8.8011     5.6235     1.1995 C.3     
  27 C27            8.8707     6.5102    -0.0455 C.3     
  28 C28            8.7777     5.6377    -1.2988 C.3     
  29 O29            7.4108     4.0308     2.3703 O.3     
  30 O30            2.8682    -4.1345    -5.3382 O.3     
  31 C31            1.5343    -4.2974    -5.8242 C.3     
  32 H32           -0.9582     1.9154     0.0170 H       
  33 H33           -0.9341    -0.5426     0.0084 H       
  34 H34            1.1697     3.1621     0.0075 H       
  35 H35            5.6184    -0.7758    -0.0562 H       
  36 H36            4.9771     5.0171    -0.0163 H       
  37 H37            4.3761    -2.7059     0.3794 H       
  38 H38            2.6059    -2.6389     0.5524 H       
  39 H39            5.4036    -2.9228    -1.8076 H       
  40 H40            5.1513    -3.7227    -4.1217 H       
  41 H41            0.9009    -3.5623    -3.7060 H       
  42 H42            1.1616    -2.7681    -1.3909 H       
  43 H43            8.2111     3.2779    -0.0576 H       
  44 H44            7.3862     4.2514    -2.1837 H       
  45 H45            6.6242     5.5815    -1.2790 H       
  46 H46            6.6476     5.5674     1.2193 H       
  47 H47            8.8673     6.2451     2.0924 H       
  48 H48            9.6293     4.9150     1.1877 H       
  49 H49            8.0425     7.2187    -0.0337 H       
  50 H50            9.8148     7.0549    -0.0512 H       
  51 H51            9.6059     4.9291    -1.3106 H       
  52 H52            8.8273     6.2693    -2.1858 H       
  53 H53            7.4641     4.5182     3.2038 H       
  54 H54            1.5638    -4.6536    -6.8540 H       
  55 H55            1.0077    -5.0227    -5.2039 H       
  56 H56            1.0141    -3.3404    -5.7855 H       
@<TRIPOS>BOND
   1    1    2 ar
   2    1    6 ar
   3    1   32 1
   4    2    3 ar
   5    2   33 1
   6    3    4 ar
   7    4    5 ar
   8    4    7 ar
   9    5    6 ar
  10    5   10 ar
  11    6   34 1
  12    7    8 ar
  13    7   16 1
  14    8    9 ar
  15    8   35 1
  16    9   10 ar
  17    9   11 1
  18   10   14 1
  19   11   12 am
  20   11   15 2
  21   12   13 1
  22   12   23 1
  23   13   14 2
  24   13   36 1
  25   16   17 1
  26   16   37 1
  27   16   38 1
  28   17   18 ar
  29   17   22 ar
  30   18   19 ar
  31   18   39 1
  32   19   20 ar
  33   19   40 1
  34   20   21 ar
  35   20   30 1
  36   21   22 ar
  37   21   41 1
  38   22   42 1
  39   23   24 1
  40   23   25 1
  41   23   43 1
  42   24   28 1
  43   24   44 1
  44   24   45 1
  45   25   26 1
  46   25   29 1
  47   25   46 1
  48   26   27 1
  49   26   47 1
  50   26   48 1
  51   27   28 1
  52   27   49 1
  53   27   50 1
  54   28   51 1
  55   28   52 1
  56   29   53 1
  57   30   31 1
  58   31   54 1
  59   31   55 1
  60   31   56 1

#	End of record

