#	Name: ASD00111084
#	Creating user name:	WinNT
#	Creation time:	15. 06. 2019 18:30

#	Modifying user name:	WinNT
#	Modification time:	15. 06. 2019 18:30

#	Program:	/corina/corina34_cracker 3.40 0067  02.08.2006

@<TRIPOS>MOLECULE
ASD00111084
  37   38    0    0    0
SMALL
NO_CHARGES


@<TRIPOS>ATOM
   1 N1             0.2948     1.5592     0.0550 N.am    
   2 C2             0.1645     0.1072    -0.0172 C.3     
   3 C3             0.6298    -0.5205     1.3011 C.3     
   4 C4             2.1402    -0.6051     1.2912 C.ar    
   5 C5             2.8992     0.5381     1.3951 C.ar    
   6 C6             2.2284     1.8886     1.5195 C.3     
   7 C7             1.5801     2.2403     0.1760 C.3     
   8 C8             4.2806     0.4678     1.3876 C.ar    
   9 C9             4.9099    -0.7624     1.2744 C.ar    
  10 C10            4.1406    -1.9292     1.1679 C.ar    
  11 C11            2.7462    -1.8400     1.1773 C.ar    
  12 C12            0.1721     0.3494     2.4736 C.3     
  13 O13            6.2649    -0.8365     1.2664 O.3     
  14 C14            6.9826     0.3941     1.3783 C.3     
  15 C15            4.7798    -3.2051     1.0496 C.1     
  16 N16            5.2870    -4.2173     0.9557 N.1     
  17 C17           -0.8251     2.3072     0.0018 C.2     
  18 O18           -1.9079     1.7712    -0.1036 O.2     
  19 C19           -0.7318     3.8096     0.0733 C.3     
  20 F20           -2.0156     4.3606    -0.0008 F       
  21 F21           -0.1332     4.1827     1.2815 F       
  22 F22            0.0400     4.2803    -0.9944 F       
  23 H23           -0.8785    -0.1547    -0.1952 H       
  24 H24            0.7773    -0.2715    -0.8352 H       
  25 H25            0.2081    -1.5210     1.3986 H       
  26 H26            1.4635     1.8468     2.2949 H       
  27 H27            2.9714     2.6437     1.7758 H       
  28 H28            2.2351     1.9252    -0.6362 H       
  29 H29            1.4260     3.3178     0.1190 H       
  30 H30            4.8683     1.3702     1.4695 H       
  31 H31            2.1451    -2.7336     1.0963 H       
  32 H32           -0.7895    -0.0105     2.8394 H       
  33 H33            0.9089     0.2958     3.2751 H       
  34 H34            0.0710     1.3827     2.1416 H       
  35 H35            8.0538     0.1931     1.3589 H       
  36 H36            6.7200     1.0451     0.5444 H       
  37 H37            6.7216     0.8828     2.3170 H       
@<TRIPOS>BOND
   1    1    2 1
   2    1    7 1
   3    1   17 am
   4    2    3 1
   5    2   23 1
   6    2   24 1
   7    3    4 1
   8    3   12 1
   9    3   25 1
  10    4    5 ar
  11    4   11 ar
  12    5    6 1
  13    5    8 ar
  14    6    7 1
  15    6   26 1
  16    6   27 1
  17    7   28 1
  18    7   29 1
  19    8    9 ar
  20    8   30 1
  21    9   10 ar
  22    9   13 1
  23   10   11 ar
  24   10   15 1
  25   11   31 1
  26   12   32 1
  27   12   33 1
  28   12   34 1
  29   13   14 1
  30   14   35 1
  31   14   36 1
  32   14   37 1
  33   15   16 3
  34   17   18 2
  35   17   19 1
  36   19   20 1
  37   19   21 1
  38   19   22 1

#	End of record

