#	Name: ASD01882839
#	Creating user name:	WinNT
#	Creation time:	15. 06. 2019 19:45

#	Modifying user name:	WinNT
#	Modification time:	15. 06. 2019 19:45

#	Program:	/corina/corina34_cracker 3.40 0067  02.08.2006

@<TRIPOS>MOLECULE
ASD01882839
  42   44    0    0    0
SMALL
NO_CHARGES


@<TRIPOS>ATOM
   1 N1            -0.0165     1.3692     0.0096 N.pl3   
   2 O2             1.1412    -0.7243    -0.0127 O.3     
   3 C3             0.0021    -0.0041     0.0020 C.2     
   4 N4            -1.0753    -0.7270     0.0089 N.2     
   5 C5            -0.6825    -2.1495    -0.0119 C.3     
   6 C6             0.8073    -2.0656    -0.4248 C.3     
   7 C7             1.6461    -3.0976     0.3317 C.3     
   8 O8             3.0177    -2.9666    -0.0470 O.3     
   9 C9             3.9031    -3.8156     0.5380 C.ar    
  10 C10            5.2508    -3.7438     0.2165 C.ar    
  11 C11            6.1488    -4.6080     0.8125 C.ar    
  12 C12            5.7054    -5.5439     1.7286 C.ar    
  13 C13            4.3627    -5.6177     2.0503 C.ar    
  14 C14            3.4616    -4.7517     1.4618 C.ar    
  15 C15            6.6872    -6.4854     2.3773 C.3     
  16 C16            6.6587    -6.2866     3.8940 C.3     
  17 C17            7.6555    -7.2424     4.5525 C.3     
  18 C18            7.2734    -8.6862     4.2202 C.3     
  19 C19            7.3019    -8.8850     2.7034 C.3     
  20 C20            6.3051    -7.9292     2.0449 C.3     
  21 H21            0.8168     1.8655     0.0043 H       
  22 H22           -0.8631     1.8427     0.0162 H       
  23 H23           -0.7880    -2.5971     0.9763 H       
  24 H24           -1.2610    -2.7025    -0.7520 H       
  25 H25            0.9222    -2.1841    -1.5022 H       
  26 H26            1.5477    -2.9301     1.4042 H       
  27 H27            1.2958    -4.1004     0.0869 H       
  28 H28            5.5975    -3.0132    -0.4992 H       
  29 H29            7.1980    -4.5528     0.5624 H       
  30 H30            4.0188    -6.3501     2.7657 H       
  31 H31            2.4137    -4.8065     1.7170 H       
  32 H32            7.6899    -6.2795     2.0026 H       
  33 H33            6.9309    -5.2580     4.1308 H       
  34 H34            5.6560    -6.4925     4.2687 H       
  35 H35            8.6581    -7.0365     4.1779 H       
  36 H36            7.6351    -7.1008     5.6331 H       
  37 H37            7.9835    -9.3672     4.6893 H       
  38 H38            6.2707    -8.8921     4.5948 H       
  39 H39            8.3046    -8.6791     2.3288 H       
  40 H40            7.0297    -9.9136     2.4666 H       
  41 H41            5.3025    -8.1351     2.4195 H       
  42 H42            6.3255    -8.0708     0.9643 H       
@<TRIPOS>BOND
   1    1    3 1
   2    1   21 1
   3    1   22 1
   4    2    3 1
   5    2    6 1
   6    3    4 2
   7    4    5 1
   8    5    6 1
   9    5   23 1
  10    5   24 1
  11    6    7 1
  12    6   25 1
  13    7    8 1
  14    7   26 1
  15    7   27 1
  16    8    9 1
  17    9   10 ar
  18    9   14 ar
  19   10   11 ar
  20   10   28 1
  21   11   12 ar
  22   11   29 1
  23   12   13 ar
  24   12   15 1
  25   13   14 ar
  26   13   30 1
  27   14   31 1
  28   15   16 1
  29   15   20 1
  30   15   32 1
  31   16   17 1
  32   16   33 1
  33   16   34 1
  34   17   18 1
  35   17   35 1
  36   17   36 1
  37   18   19 1
  38   18   37 1
  39   18   38 1
  40   19   20 1
  41   19   39 1
  42   19   40 1
  43   20   41 1
  44   20   42 1

#	End of record

