#	Name: ASD01180249
#	Creating user name:	WinNT
#	Creation time:	15. 06. 2019 19:07

#	Modifying user name:	WinNT
#	Modification time:	15. 06. 2019 19:07

#	Program:	/corina/corina34_cracker 3.40 0067  02.08.2006

@<TRIPOS>MOLECULE
ASD01180249
  63   65    0    0    0
SMALL
NO_CHARGES


@<TRIPOS>ATOM
   1 C1            -1.0861     1.4737     0.4826 C.2     
   2 C2            -0.9171    -0.0221     0.4108 C.3     
   3 C3             0.5691    -0.3617     0.2806 C.3     
   4 O4            -0.1174     2.1942     0.4345 O.2     
   5 O5            -2.3134     2.0058     0.5943 O.3     
   6 N6             0.7335    -1.8157     0.2109 N.am    
   7 C7             1.9653    -2.3498     0.0931 C.2     
   8 O8             2.9396    -1.6252     0.0448 O.2     
   9 C9             2.1316    -3.8208     0.0225 C.ar    
  10 N10            3.3516    -4.3267    -0.0932 N.ar    
  11 C11            3.5399    -5.6304    -0.1590 C.ar    
  12 C12            2.4321    -6.4794    -0.1051 C.ar    
  13 C13            1.1637    -5.9075     0.0171 C.ar    
  14 N14            1.0566    -4.5945     0.0823 N.ar    
  15 N15            2.5882    -7.8599    -0.1717 N.pl3   
  16 C16            1.4254    -8.7370    -0.0139 C.3     
  17 C17            0.7428    -8.9279    -1.3699 C.3     
  18 C18           -0.5397    -9.7416    -1.1852 C.3     
  19 C19           -1.5422    -8.9330    -0.3593 C.3     
  20 C20            2.6968   -12.5323     1.4889 C.ar    
  21 C21            1.5203   -11.9525     1.9592 C.ar    
  22 C22            1.1144   -10.7273     1.4703 C.ar    
  23 C23            1.8734   -10.0748     0.5157 C.ar    
  24 C24            3.0420   -10.6460     0.0449 C.ar    
  25 C25            3.4573   -11.8708     0.5268 C.ar    
  26 C26            3.1414   -13.8466     2.0152 C.ar    
  27 C27            4.3180   -14.4263     1.5449 C.ar    
  28 C28            4.7268   -15.6489     2.0379 C.ar    
  29 C29            3.9707   -16.2988     2.9967 C.ar    
  30 C30            2.8017   -15.7280     3.4668 C.ar    
  31 C31            2.3869   -14.5027     2.9856 C.ar    
  32 C32            4.4220   -17.6337     3.5308 C.3     
  33 F33            5.2424   -17.4364     4.6466 F       
  34 F34            3.3046   -18.3896     3.9014 F       
  35 F35            5.1378   -18.3145     2.5402 F       
  36 C36           -1.1445   -10.0580    -2.5545 C.3     
  37 H37           -1.3156    -0.4767     1.3178 H       
  38 H38           -1.4550    -0.4074    -0.4554 H       
  39 H39            0.9676     0.0930    -0.6264 H       
  40 H40            1.1071     0.0237     1.1468 H       
  41 H41           -2.3716     2.9701     0.6368 H       
  42 H42           -0.0443    -2.3942     0.2494 H       
  43 H43            4.5365    -6.0357    -0.2536 H       
  44 H44            0.2835    -6.5317     0.0615 H       
  45 H45            3.4669    -8.2420    -0.3227 H       
  46 H46            0.7224    -8.2859     0.6864 H       
  47 H47            0.4973    -7.9540    -1.7934 H       
  48 H48            1.4156    -9.4581    -2.0439 H       
  49 H49           -0.3082   -10.6719    -0.6665 H       
  50 H50           -1.8023    -8.0203    -0.8955 H       
  51 H51           -2.4413    -9.5272    -0.1959 H       
  52 H52           -1.0972    -8.6755     0.6018 H       
  53 H53            0.9269   -12.4611     2.7046 H       
  54 H54            0.2027   -10.2770     1.8342 H       
  55 H55            3.6307   -10.1324    -0.7008 H       
  56 H56            4.3702   -12.3155     0.1591 H       
  57 H57            4.9087   -13.9201     0.7958 H       
  58 H58            5.6385   -16.0992     1.6741 H       
  59 H59            2.2150   -16.2399     4.2152 H       
  60 H60            1.4767   -14.0555     3.3571 H       
  61 H61           -0.4303   -10.6340    -3.1428 H       
  62 H62           -2.0582   -10.6377    -2.4229 H       
  63 H63           -1.3760    -9.1277    -3.0732 H       
@<TRIPOS>BOND
   1    1    2 1
   2    1    4 2
   3    1    5 1
   4    2    3 1
   5    2   37 1
   6    2   38 1
   7    3    6 1
   8    3   39 1
   9    3   40 1
  10    5   41 1
  11    6    7 am
  12    6   42 1
  13    7    8 2
  14    7    9 1
  15    9   10 ar
  16    9   14 ar
  17   10   11 ar
  18   11   12 ar
  19   11   43 1
  20   12   13 ar
  21   12   15 1
  22   13   14 ar
  23   13   44 1
  24   15   16 1
  25   15   45 1
  26   16   17 1
  27   16   23 1
  28   16   46 1
  29   17   18 1
  30   17   47 1
  31   17   48 1
  32   18   19 1
  33   18   36 1
  34   18   49 1
  35   19   50 1
  36   19   51 1
  37   19   52 1
  38   20   21 ar
  39   20   25 ar
  40   20   26 1
  41   21   22 ar
  42   21   53 1
  43   22   23 ar
  44   22   54 1
  45   23   24 ar
  46   24   25 ar
  47   24   55 1
  48   25   56 1
  49   26   27 ar
  50   26   31 ar
  51   27   28 ar
  52   27   57 1
  53   28   29 ar
  54   28   58 1
  55   29   30 ar
  56   29   32 1
  57   30   31 ar
  58   30   59 1
  59   31   60 1
  60   32   33 1
  61   32   34 1
  62   32   35 1
  63   36   61 1
  64   36   62 1
  65   36   63 1

#	End of record

