#	Name: ASD09116402
#	Creating user name:	WinNT
#	Creation time:	15. 06. 2019 21:21

#	Modifying user name:	WinNT
#	Modification time:	15. 06. 2019 21:21

#	Program:	/corina/corina34_cracker 3.40 0067  02.08.2006

@<TRIPOS>MOLECULE
ASD09116402
  71   77    0    0    0
SMALL
NO_CHARGES


@<TRIPOS>ATOM
   1 N1            -0.0296     1.4181     0.1442 N.2     
   2 N2            -0.0207     0.0191     0.2644 N.pl3   
   3 C3             1.2225     1.8077     0.1150 C.2     
   4 N4             2.0156     0.7340     0.2099 N.2     
   5 C5             1.2803    -0.3533     0.3008 C.2     
   6 N6             1.7526    -1.6471     0.4142 N.pl3   
   7 C7            -1.1334    -0.8214     0.3328 C.ar    
   8 N8             1.6572     3.1282     0.0026 N.pl3   
   9 C9             3.0221     3.4264     0.0969 C.ar    
  10 C10            3.5420     4.5221    -0.5805 C.ar    
  11 C11            3.8545     2.6303     0.8720 C.ar    
  12 C12            5.2013     2.9240     0.9660 C.ar    
  13 C13            5.7232     4.0147     0.2855 C.ar    
  14 C14            4.8892     4.8161    -0.4871 C.ar    
  15 N15           -1.0315    -2.0871    -0.0443 N.ar    
  16 N16           -2.0271    -2.8996    -0.0101 N.ar    
  17 C17           -3.2227    -2.5147     0.4067 C.ar    
  18 C18           -3.4195    -1.2019     0.8445 C.ar    
  19 C19           -2.3529    -0.3290     0.8044 C.ar    
  20 C20           -4.3844    -3.4338     0.3961 C.ar    
  21 C21           -5.5811    -3.0018    -0.1779 C.ar    
  22 C22           -5.6438    -1.6420    -0.8179 C.3     
  23 C23           -5.7425    -0.5372     0.2306 C.3     
  24 C24           -4.7615    -0.7865     1.3730 C.3     
  25 C25           -4.2978    -4.7064     0.9495 C.ar    
  26 C26           -5.4062    -5.5310     0.9445 C.ar    
  27 C27           -6.5961    -5.0914     0.3933 C.ar    
  28 C28           -6.6840    -3.8284    -0.1663 C.ar    
  29 F29            5.3968     5.8780    -1.1504 F       
  30 N30            7.0892     4.3125     0.3815 N.3     
  31 C31            7.4735     4.5771     1.7737 C.3     
  32 C32            8.9505     4.9773     1.8362 C.3     
  33 N33            9.7774     3.9156     1.2490 N.3     
  34 C34            9.3785     3.6378    -0.1396 C.3     
  35 C35            7.9059     3.2275    -0.1819 C.3     
  36 C36            9.3382     5.1848     3.3034 C.3     
  37 C37           10.8211     5.5500     3.3966 C.3     
  38 C38           11.6481     4.4325     2.7534 C.3     
  39 C39           11.2061     4.2600     1.2997 C.3     
  40 H40            2.7079    -1.8148     0.4320 H       
  41 H41            1.1290    -2.3874     0.4759 H       
  42 H42            1.0141     3.8401    -0.1409 H       
  43 H43            2.8937     5.1438    -1.1802 H       
  44 H44            3.4490     1.7811     1.4020 H       
  45 H45            5.8480     2.3046     1.5697 H       
  46 H46           -2.4582     0.6990     1.1184 H       
  47 H47           -4.7453    -1.4874    -1.4153 H       
  48 H48           -6.5164    -1.5944    -1.4693 H       
  49 H49           -5.5144     0.4213    -0.2356 H       
  50 H50           -6.7570    -0.5096     0.6283 H       
  51 H51           -5.1531    -1.5746     2.0161 H       
  52 H52           -4.6499     0.1280     1.9556 H       
  53 H53           -3.3687    -5.0486     1.3808 H       
  54 H54           -5.3433    -6.5210     1.3715 H       
  55 H55           -7.4617    -5.7372     0.3999 H       
  56 H56           -7.6164    -3.4910    -0.5943 H       
  57 H57            6.8614     5.3868     2.1711 H       
  58 H58            7.3159     3.6785     2.3702 H       
  59 H59            9.1005     5.9041     1.2824 H       
  60 H60            9.5229     4.5331    -0.7443 H       
  61 H61            9.9917     2.8294    -0.5381 H       
  62 H62            7.7631     2.3207     0.4059 H       
  63 H63            7.6078     3.0450    -1.2143 H       
  64 H64            8.7387     5.9908     3.7266 H       
  65 H65            9.1550     4.2661     3.8606 H       
  66 H66           11.0003     6.4868     2.8690 H       
  67 H67           11.1053     5.6583     4.4434 H       
  68 H68           12.7051     4.6970     2.7843 H       
  69 H69           11.4876     3.5012     3.2964 H       
  70 H70           11.7875     3.4627     0.8367 H       
  71 H71           11.3737     5.1905     0.7574 H       
@<TRIPOS>BOND
   1    1    2 1
   2    1    3 2
   3    2    7 1
   4    2    5 1
   5    3    4 1
   6    3    8 1
   7    4    5 2
   8    5    6 1
   9    6   40 1
  10    6   41 1
  11    7   15 ar
  12    7   19 ar
  13    8    9 1
  14    8   42 1
  15    9   10 ar
  16    9   11 ar
  17   10   14 ar
  18   10   43 1
  19   11   12 ar
  20   11   44 1
  21   12   13 ar
  22   12   45 1
  23   13   14 ar
  24   13   30 1
  25   14   29 1
  26   15   16 ar
  27   16   17 ar
  28   17   18 ar
  29   17   20 1
  30   18   19 ar
  31   18   24 1
  32   19   46 1
  33   20   21 ar
  34   20   25 ar
  35   21   22 1
  36   21   28 ar
  37   22   23 1
  38   22   47 1
  39   22   48 1
  40   23   24 1
  41   23   49 1
  42   23   50 1
  43   24   51 1
  44   24   52 1
  45   25   26 ar
  46   25   53 1
  47   26   27 ar
  48   26   54 1
  49   27   28 ar
  50   27   55 1
  51   28   56 1
  52   30   31 1
  53   30   35 1
  54   31   32 1
  55   31   57 1
  56   31   58 1
  57   32   33 1
  58   32   36 1
  59   32   59 1
  60   33   34 1
  61   33   39 1
  62   34   35 1
  63   34   60 1
  64   34   61 1
  65   35   62 1
  66   35   63 1
  67   36   37 1
  68   36   64 1
  69   36   65 1
  70   37   38 1
  71   37   66 1
  72   37   67 1
  73   38   39 1
  74   38   68 1
  75   38   69 1
  76   39   70 1
  77   39   71 1

#	End of record

