#	Name: ASD09890086
#	Creating user name:	WinNT
#	Creation time:	15. 06. 2019 21:24

#	Modifying user name:	WinNT
#	Modification time:	15. 06. 2019 21:24

#	Program:	/corina/corina34_cracker 3.40 0067  02.08.2006

@<TRIPOS>MOLECULE
ASD09890086
  45   48    0    0    0
SMALL
NO_CHARGES


@<TRIPOS>ATOM
   1 C1            -0.0176     1.3671     0.0631 C.2     
   2 N2            -0.0054    -0.0002     0.0335 N.pl3   
   3 C3            -1.2996    -0.4352     0.1163 C.2     
   4 N4            -2.0759     0.6192     0.1938 N.2     
   5 N5            -1.2621     1.7591     0.1649 N.2     
   6 S6            -1.8302    -2.1154     0.1181 S.3     
   7 C7            -3.6338    -1.9736     0.2497 C.3     
   8 C8             1.1336    -0.8132    -0.0654 C.ar    
   9 C9             2.0780    -0.8326     0.9568 C.ar    
  10 C10            3.1862    -1.6520     0.8137 C.ar    
  11 C11            3.3167    -2.4172    -0.3299 C.ar    
  12 N12            2.4035    -2.3756    -1.2806 N.ar    
  13 C13            1.3322    -1.6144    -1.1815 C.ar    
  14 C14           -4.2814    -3.3651     0.1396 C.3     
  15 C15           -5.0389    -3.6045     1.4620 C.3     
  16 C16           -5.3160    -2.1803     2.0042 C.3     
  17 C17           -4.0204    -1.4159     1.6351 C.3     
  18 O18            1.0702     2.1752     0.0035 O.3     
  19 C19            0.8650     3.5150    -0.0919 C.ar    
  20 C20           -0.4174     4.0099    -0.2838 C.ar    
  21 C21            1.9363     4.3907     0.0081 C.ar    
  22 C22            1.7245     5.7537    -0.0889 C.ar    
  23 C23            0.4454     6.2436    -0.2850 C.ar    
  24 C24           -0.6240     5.3722    -0.3800 C.ar    
  25 Cl25           3.0641     6.8508     0.0359 Cl      
  26 C26            0.2167     7.7294    -0.3900 C.3     
  27 H27           -4.0151    -1.3212    -0.5359 H       
  28 H28            1.9505    -0.2237     1.8396 H       
  29 H29            3.9394    -1.6921     1.5867 H       
  30 H30            4.1783    -3.0577    -0.4467 H       
  31 H31            0.6059    -1.6070    -1.9808 H       
  32 H32           -4.9775    -3.3878    -0.6988 H       
  33 H33           -3.5119    -4.1257     0.0072 H       
  34 H34           -5.9751    -4.1306     1.2755 H       
  35 H35           -4.4182    -4.1647     2.1612 H       
  36 H36           -6.1798    -1.7390     1.5069 H       
  37 H37           -5.4589    -2.1993     3.0846 H       
  38 H38           -3.2352    -1.6227     2.3622 H       
  39 H39           -4.2134    -0.3448     1.5748 H       
  40 H40           -1.2533     3.3301    -0.3581 H       
  41 H41            2.9345     4.0083     0.1618 H       
  42 H42           -1.6215     5.7570    -0.5331 H       
  43 H43            0.2981     8.0368    -1.4325 H       
  44 H44           -0.7784     7.9712    -0.0165 H       
  45 H45            0.9650     8.2550     0.2032 H       
@<TRIPOS>BOND
   1    1    2 1
   2    1   18 1
   3    1    5 2
   4    2    3 1
   5    2    8 1
   6    3    4 2
   7    3    6 1
   8    4    5 1
   9    6    7 1
  10    7   14 1
  11    7   17 1
  12    7   27 1
  13    8    9 ar
  14    8   13 ar
  15    9   10 ar
  16    9   28 1
  17   10   11 ar
  18   10   29 1
  19   11   12 ar
  20   11   30 1
  21   12   13 ar
  22   13   31 1
  23   14   15 1
  24   14   32 1
  25   14   33 1
  26   15   16 1
  27   15   34 1
  28   15   35 1
  29   16   17 1
  30   16   36 1
  31   16   37 1
  32   17   38 1
  33   17   39 1
  34   18   19 1
  35   19   20 ar
  36   19   21 ar
  37   20   24 ar
  38   20   40 1
  39   21   22 ar
  40   21   41 1
  41   22   23 ar
  42   22   25 1
  43   23   24 ar
  44   23   26 1
  45   24   42 1
  46   26   43 1
  47   26   44 1
  48   26   45 1

#	End of record

