#	Name: ASD01812859
#	Creating user name:	WinNT
#	Creation time:	15. 06. 2019 19:29

#	Modifying user name:	WinNT
#	Modification time:	15. 06. 2019 19:29

#	Program:	/corina/corina34_cracker 3.40 0067  02.08.2006

@<TRIPOS>MOLECULE
ASD01812859
  52   56    0    0    0
SMALL
NO_CHARGES


@<TRIPOS>ATOM
   1 N1             0.0027     1.3185    -0.2224 N.ar    
   2 C2             0.0319     0.0058    -0.3460 C.ar    
   3 C3             1.2340    -0.6843    -0.3682 C.ar    
   4 C4             2.4113     0.0205    -0.2593 C.ar    
   5 C5             2.3615     1.4132    -0.1292 C.ar    
   6 C6             1.1073     2.0395    -0.1145 C.ar    
   7 C7             3.8682    -0.3580    -0.2436 C.3     
   8 N8             4.6152     0.8976    -0.0984 N.am    
   9 C9             3.7395     1.9163    -0.0329 C.2     
  10 C10            6.0737     1.0205    -0.0353 C.3     
  11 C11            6.6237     1.1964    -1.4272 C.ar    
  12 C12            6.7702     2.4667    -1.9548 C.ar    
  13 C13            7.2738     2.6337    -3.2289 C.ar    
  14 C14            7.6350     1.5197    -3.9840 C.ar    
  15 C15            7.4853     0.2423    -3.4475 C.ar    
  16 C16            6.9855     0.0873    -2.1704 C.ar    
  17 O17            1.0259     3.3855     0.0100 O.3     
  18 O18            4.0443     3.0872     0.0883 O.2     
  19 C19           -0.2023     3.9618    -0.0803 C.ar    
  20 C20           -1.0085     4.0614     1.0467 C.ar    
  21 C21           -2.2574     4.6486     0.9517 C.ar    
  22 C22           -2.7026     5.1356    -0.2644 C.ar    
  23 C23           -1.9002     5.0367    -1.3873 C.ar    
  24 C24           -0.6498     4.4561    -1.2962 C.ar    
  25 Cl25          -4.2707     5.8712    -0.3817 Cl      
  26 F26           -0.5736     3.5850     2.2337 F       
  27 C27            8.1765     1.6929    -5.3545 C.ar    
  28 C28            8.3331     2.9661    -5.9087 C.ar    
  29 C29            8.8409     3.0821    -7.1867 C.ar    
  30 N30            9.1757     2.0122    -7.8818 N.ar    
  31 C31            9.0437     0.7928    -7.3956 C.ar    
  32 C32            8.5494     0.5872    -6.1241 C.ar    
  33 C33            9.4432    -0.3909    -8.2384 C.3     
  34 H34           -0.8958    -0.5406    -0.4310 H       
  35 H35            1.2466    -1.7595    -0.4692 H       
  36 H36            4.0752    -1.0171     0.5995 H       
  37 H37            4.1381    -0.8488    -1.1787 H       
  38 H38            6.3394     1.8855     0.5724 H       
  39 H39            6.4952     0.1198     0.4108 H       
  40 H40            6.4896     3.3294    -1.3687 H       
  41 H41            7.3875     3.6259    -3.6399 H       
  42 H42            7.7637    -0.6245    -4.0285 H       
  43 H43            6.8729    -0.9019    -1.7520 H       
  44 H44           -2.8852     4.7267     1.8270 H       
  45 H45           -2.2503     5.4173    -2.3355 H       
  46 H46           -0.0228     4.3833    -2.1726 H       
  47 H47            8.0604     3.8463    -5.3455 H       
  48 H48            8.9656     4.0619    -7.6235 H       
  49 H49            8.4480    -0.4136    -5.7309 H       
  50 H50           10.4921    -0.6270    -8.0593 H       
  51 H51            8.8270    -1.2501    -7.9734 H       
  52 H52            9.2994    -0.1517    -9.2921 H       
@<TRIPOS>BOND
   1    1    2 ar
   2    1    6 ar
   3    2    3 ar
   4    2   34 1
   5    3    4 ar
   6    3   35 1
   7    4    7 1
   8    4    5 ar
   9    5    6 ar
  10    5    9 1
  11    6   17 1
  12    7    8 1
  13    7   36 1
  14    7   37 1
  15    8    9 am
  16    8   10 1
  17    9   18 2
  18   10   11 1
  19   10   38 1
  20   10   39 1
  21   11   12 ar
  22   11   16 ar
  23   12   13 ar
  24   12   40 1
  25   13   14 ar
  26   13   41 1
  27   14   15 ar
  28   14   27 1
  29   15   16 ar
  30   15   42 1
  31   16   43 1
  32   17   19 1
  33   19   20 ar
  34   19   24 ar
  35   20   21 ar
  36   20   26 1
  37   21   22 ar
  38   21   44 1
  39   22   23 ar
  40   22   25 1
  41   23   24 ar
  42   23   45 1
  43   24   46 1
  44   27   28 ar
  45   27   32 ar
  46   28   29 ar
  47   28   47 1
  48   29   30 ar
  49   29   48 1
  50   30   31 ar
  51   31   32 ar
  52   31   33 1
  53   32   49 1
  54   33   50 1
  55   33   51 1
  56   33   52 1

#	End of record

