#	Name: ASD01910796
#	Creating user name:	WinNT
#	Creation time:	15. 06. 2019 19:56

#	Modifying user name:	WinNT
#	Modification time:	15. 06. 2019 19:56

#	Program:	/corina/corina34_cracker 3.40 0067  02.08.2006

@<TRIPOS>MOLECULE
ASD01910796
  54   57    0    0    0
SMALL
NO_CHARGES


@<TRIPOS>ATOM
   1 C1            12.4911    -1.8811     4.2845 C.ar    
   2 C2            13.1647    -1.2044     3.2829 C.ar    
   3 C3            12.4614    -0.8625     2.1222 C.ar    
   4 C4            11.1056    -1.2194     2.0227 C.ar    
   5 N5            10.5099    -1.8665     3.0122 N.ar    
   6 C6            11.1554    -2.1979     4.1134 C.ar    
   7 N7            10.3893    -0.8921     0.8846 N.3     
   8 C8             9.0061    -0.5283     1.2195 C.3     
   9 C9             8.3019    -0.0012    -0.0353 C.3     
  10 N10            8.4403    -1.0021    -1.1040 N.am    
  11 C11            9.7845    -1.5180    -1.4045 C.3     
  12 C12           10.4303    -1.9854    -0.0957 C.3     
  13 C13            7.3640    -1.4349    -1.7901 C.2     
  14 C14            7.5387    -2.3403    -2.9431 C.ar    
  15 O15            6.2492    -1.0796    -1.4595 O.2     
  16 C16            6.6480    -3.3998    -3.1414 C.ar    
  17 C17            6.8064    -4.2480    -4.2161 C.ar    
  18 C18            7.8505    -4.0572    -5.1093 C.ar    
  19 C19            8.7511    -2.9962    -4.9208 C.ar    
  20 C20            8.5884    -2.1355    -3.8378 C.ar    
  21 C21            9.8300    -2.7972    -5.8411 C.1     
  22 C22           10.7145    -2.6341    -6.5956 C.1     
  23 C23           11.7934    -2.4351    -7.5160 C.ar    
  24 C24           12.6900    -1.3796    -7.3292 C.ar    
  25 C25           13.7270    -1.1945    -8.2194 C.ar    
  26 C26           13.8805    -2.0505    -9.2958 C.ar    
  27 C27           12.9963    -3.0976    -9.4874 C.ar    
  28 C28           11.9582    -3.2989    -8.6020 C.ar    
  29 O29            8.0018    -4.8957    -6.1646 O.3     
  30 C30            7.0498    -5.9534    -6.2946 C.3     
  31 C31           13.1110    -0.1617     1.0557 C.1     
  32 N32           13.6264     0.3943     0.2096 N.1     
  33 H33           13.0055    -2.1637     5.1911 H       
  34 H34           14.2075    -0.9461     3.3943 H       
  35 H35           10.6315    -2.7260     4.8964 H       
  36 H36            8.4785    -1.4070     1.5906 H       
  37 H37            9.0092     0.2456     1.9871 H       
  38 H38            7.2457     0.1621     0.1789 H       
  39 H39            8.7640     0.9351    -0.3484 H       
  40 H40            9.7086    -2.3574    -2.0955 H       
  41 H41           10.3891    -0.7275    -1.8492 H       
  42 H42           11.4664    -2.2682    -0.2821 H       
  43 H43            9.8829    -2.8438     0.2936 H       
  44 H44            5.8332    -3.5543    -2.4496 H       
  45 H45            6.1152    -5.0647    -4.3632 H       
  46 H46            9.2772    -1.3174    -3.6873 H       
  47 H47           12.5710    -0.7103    -6.4900 H       
  48 H48           14.4207    -0.3792    -8.0763 H       
  49 H49           14.6942    -1.9005    -9.9899 H       
  50 H50           13.1219    -3.7613   -10.3301 H       
  51 H51           11.2689    -4.1165    -8.7528 H       
  52 H52            7.2852    -6.5478    -7.1774 H       
  53 H53            7.0879    -6.5875    -5.4088 H       
  54 H54            6.0498    -5.5317    -6.3966 H       
@<TRIPOS>BOND
   1    1    2 ar
   2    1    6 ar
   3    1   33 1
   4    2    3 ar
   5    2   34 1
   6    3    4 ar
   7    3   31 1
   8    4    5 ar
   9    4    7 1
  10    5    6 ar
  11    6   35 1
  12    7    8 1
  13    7   12 1
  14    8    9 1
  15    8   36 1
  16    8   37 1
  17    9   10 1
  18    9   38 1
  19    9   39 1
  20   10   11 1
  21   10   13 am
  22   11   12 1
  23   11   40 1
  24   11   41 1
  25   12   42 1
  26   12   43 1
  27   13   14 1
  28   13   15 2
  29   14   16 ar
  30   14   20 ar
  31   16   17 ar
  32   16   44 1
  33   17   18 ar
  34   17   45 1
  35   18   19 ar
  36   18   29 1
  37   19   20 ar
  38   19   21 1
  39   20   46 1
  40   21   22 3
  41   22   23 1
  42   23   24 ar
  43   23   28 ar
  44   24   25 ar
  45   24   47 1
  46   25   26 ar
  47   25   48 1
  48   26   27 ar
  49   26   49 1
  50   27   28 ar
  51   27   50 1
  52   28   51 1
  53   29   30 1
  54   30   52 1
  55   30   53 1
  56   30   54 1
  57   31   32 3

#	End of record

