#	Name: ASD01812647
#	Creating user name:	WinNT
#	Creation time:	15. 06. 2019 19:28

#	Modifying user name:	WinNT
#	Modification time:	15. 06. 2019 19:28

#	Program:	/corina/corina34_cracker 3.40 0067  02.08.2006

@<TRIPOS>MOLECULE
ASD01812647
  63   68    0    0    0
SMALL
NO_CHARGES


@<TRIPOS>ATOM
   1 O1             0.2428     0.8077     0.1169 O.3     
   2 C2             0.1133    -0.5411     0.0542 C.ar    
   3 C3             1.2405    -1.3482     0.0118 C.ar    
   4 C4             1.1107    -2.7216    -0.0521 C.ar    
   5 C5            -0.1468    -3.3050    -0.0739 C.ar    
   6 C6            -1.2729    -2.5182    -0.0320 C.ar    
   7 C7            -1.1605    -1.1267     0.0377 C.ar    
   8 C8            -2.7496    -2.8259    -0.0407 C.3     
   9 N9            -3.4379    -1.5314     0.0226 N.am    
  10 C10           -2.5163    -0.5543     0.0759 C.2     
  11 C11           -4.8898    -1.3368     0.0369 C.3     
  12 O12           -2.7669     0.6341     0.1342 O.2     
  13 C13            1.4967     1.3273     0.1362 C.ar    
  14 C14            2.1540     1.5347     1.3561 C.ar    
  15 C15            1.5067     1.1995     2.5887 C.1     
  16 C16            2.1363     1.6507    -1.0533 C.ar    
  17 C17            3.4137     2.1794    -1.0309 C.ar    
  18 C18            4.0636     2.3897     0.1742 C.ar    
  19 C19            3.4449     2.0698     1.3633 C.ar    
  20 C20           -5.3827    -1.3368     1.4610 C.ar    
  21 C21           -5.4487    -0.1504     2.1683 C.ar    
  22 C22           -5.9000    -0.1473     3.4737 C.ar    
  23 C23           -6.2875    -1.3369     4.0757 C.ar    
  24 C24           -6.2200    -2.5264     3.3629 C.ar    
  25 C25           -5.7732    -2.5224     2.0560 C.ar    
  26 N26           -6.7455    -1.3370     5.4005 N.pl3   
  27 N27           -6.4286    -2.2835     6.3832 N.2     
  28 C28           -7.0422    -1.9506     7.4900 C.2     
  29 C29           -7.7727    -0.7812     7.2563 C.2     
  30 C30           -7.5719    -0.4150     5.9625 C.2     
  31 N31            0.9932     0.9337     3.5665 N.1     
  32 F32            1.5102     1.4480    -2.2331 F       
  33 O33           -8.1017     0.6711     5.3441 O.3     
  34 C34           -9.0436     1.4463     6.0884 C.3     
  35 C35           -9.4409     2.6591     5.2870 C.ar    
  36 C36          -10.5218     2.5958     4.4275 C.ar    
  37 C37          -10.8862     3.7083     3.6923 C.ar    
  38 C38          -10.1701     4.8841     3.8169 C.ar    
  39 C39           -9.0899     4.9476     4.6771 C.ar    
  40 C40           -8.7281     3.8365     5.4155 C.ar    
  41 H41            2.2234    -0.9010     0.0284 H       
  42 H42            1.9927    -3.3440    -0.0855 H       
  43 H43           -0.2417    -4.3797    -0.1243 H       
  44 H44           -3.0181    -3.3485    -0.9588 H       
  45 H45           -3.0112    -3.4322     0.8265 H       
  46 H46           -5.1332    -0.3832    -0.4318 H       
  47 H47           -5.3703    -2.1454    -0.5139 H       
  48 H48            3.9076     2.4295    -1.9582 H       
  49 H49            5.0614     2.8029     0.1817 H       
  50 H50            3.9574     2.2323     2.3000 H       
  51 H51           -5.1468     0.7746     1.6997 H       
  52 H52           -5.9510     0.7796     4.0258 H       
  53 H53           -6.5204    -3.4534     3.8286 H       
  54 H54           -5.7250    -3.4467     1.4995 H       
  55 H55           -6.9932    -2.4881     8.4254 H       
  56 H56           -8.3846    -0.2593     7.9771 H       
  57 H57           -9.9271     0.8428     6.2964 H       
  58 H58           -8.5911     1.7639     7.0278 H       
  59 H59          -11.0812     1.6772     4.3301 H       
  60 H60          -11.7302     3.6587     3.0202 H       
  61 H61          -10.4544     5.7530     3.2420 H       
  62 H62           -8.5302     5.8662     4.7742 H       
  63 H63           -7.8863     3.8872     6.0903 H       
@<TRIPOS>BOND
   1    1    2 1
   2    1   13 1
   3    2    3 ar
   4    2    7 ar
   5    3    4 ar
   6    3   41 1
   7    4    5 ar
   8    4   42 1
   9    5    6 ar
  10    5   43 1
  11    6    8 1
  12    6    7 ar
  13    7   10 1
  14    8    9 1
  15    8   44 1
  16    8   45 1
  17    9   10 am
  18    9   11 1
  19   10   12 2
  20   11   20 1
  21   11   46 1
  22   11   47 1
  23   13   16 ar
  24   13   14 ar
  25   14   15 1
  26   14   19 ar
  27   15   31 3
  28   16   17 ar
  29   16   32 1
  30   17   18 ar
  31   17   48 1
  32   18   19 ar
  33   18   49 1
  34   19   50 1
  35   20   21 ar
  36   20   25 ar
  37   21   22 ar
  38   21   51 1
  39   22   23 ar
  40   22   52 1
  41   23   24 ar
  42   23   26 1
  43   24   25 ar
  44   24   53 1
  45   25   54 1
  46   26   27 1
  47   26   30 1
  48   27   28 2
  49   28   29 1
  50   28   55 1
  51   29   30 2
  52   29   56 1
  53   30   33 1
  54   33   34 1
  55   34   35 1
  56   34   57 1
  57   34   58 1
  58   35   36 ar
  59   35   40 ar
  60   36   37 ar
  61   36   59 1
  62   37   38 ar
  63   37   60 1
  64   38   39 ar
  65   38   61 1
  66   39   40 ar
  67   39   62 1
  68   40   63 1

#	End of record

