#	Name: ASD02198186
#	Creating user name:	WinNT
#	Creation time:	15. 06. 2019 20:18

#	Modifying user name:	WinNT
#	Modification time:	15. 06. 2019 20:18

#	Program:	/corina/corina34_cracker 3.40 0067  02.08.2006

@<TRIPOS>MOLECULE
ASD02198186
  39   41    0    0    0
SMALL
NO_CHARGES


@<TRIPOS>ATOM
   1 C1            -0.0182     1.3432    -0.2943 C.2     
   2 C2             0.0099    -0.0351    -0.2552 C.2     
   3 C3            -1.1722    -0.8417    -0.3070 C.1     
   4 S4             1.5588     1.9862    -0.2135 S.3     
   5 C5             2.2776     0.3862    -0.1253 C.2     
   6 C6             1.2920    -0.5719    -0.1607 C.2     
   7 C7             3.6576     0.1237    -0.0326 C.2     
   8 C8             4.6309     1.2321    -0.1476 C.ar    
   9 O9             4.0508    -1.0173     0.1424 O.2     
  10 N10            1.5480    -1.9331    -0.1079 N.pl3   
  11 N11           -1.1639     2.0974    -0.3915 N.pl3   
  12 N12           -2.1099    -1.4815    -0.3481 N.1     
  13 C13            5.8545     1.1620     0.5201 C.ar    
  14 C14           -1.0777     3.5594    -0.4252 C.3     
  15 C15            6.7580     2.1980     0.4088 C.ar    
  16 C16            6.4531     3.3065    -0.3636 C.ar    
  17 C17            5.2403     3.3816    -1.0284 C.ar    
  18 C18            4.3313     2.3493    -0.9288 C.ar    
  19 C19           -2.3109     4.1439    -1.1362 C.3     
  20 Cl20           7.5950     4.6070    -0.4985 Cl      
  21 C21           -3.0283     5.0419    -0.1073 C.3     
  22 C22           -1.9173     5.4268     0.9010 C.3     
  23 C23           -1.0888     4.1228     1.0109 C.3     
  24 H24            2.4615    -2.2526    -0.0423 H       
  25 H25            0.8136    -2.5661    -0.1365 H       
  26 H26           -2.0291     1.6613    -0.4376 H       
  27 H27            6.0933     0.2983     1.1229 H       
  28 H28           -0.1683     3.8678    -0.9410 H       
  29 H29            7.7051     2.1450     0.9253 H       
  30 H30            5.0078     4.2484    -1.6292 H       
  31 H31            3.3859     2.4089    -1.4476 H       
  32 H32           -1.9999     4.7365    -1.9965 H       
  33 H33           -2.9734     3.3397    -1.4561 H       
  34 H34           -3.4288     5.9324    -0.5918 H       
  35 H35           -3.8229     4.4888     0.3934 H       
  36 H36           -1.3065     6.2408     0.5106 H       
  37 H37           -2.3473     5.6937     1.8663 H       
  38 H38           -1.5702     3.4212     1.6921 H       
  39 H39           -0.0739     4.3424     1.3423 H       
@<TRIPOS>BOND
   1    1    2 2
   2    1    4 1
   3    1   11 1
   4    2    3 1
   5    2    6 1
   6    3   12 3
   7    4    5 1
   8    5    6 2
   9    5    7 1
  10    6   10 1
  11    7    8 1
  12    7    9 2
  13    8   13 ar
  14    8   18 ar
  15   10   24 1
  16   10   25 1
  17   11   14 1
  18   11   26 1
  19   13   15 ar
  20   13   27 1
  21   14   19 1
  22   14   23 1
  23   14   28 1
  24   15   16 ar
  25   15   29 1
  26   16   17 ar
  27   16   20 1
  28   17   18 ar
  29   17   30 1
  30   18   31 1
  31   19   21 1
  32   19   32 1
  33   19   33 1
  34   21   22 1
  35   21   34 1
  36   21   35 1
  37   22   23 1
  38   22   36 1
  39   22   37 1
  40   23   38 1
  41   23   39 1

#	End of record

