#	Name: ASD01720102
#	Creating user name:	WinNT
#	Creation time:	15. 06. 2019 19:23

#	Modifying user name:	WinNT
#	Modification time:	15. 06. 2019 19:23

#	Program:	/corina/corina34_cracker 3.40 0067  02.08.2006

@<TRIPOS>MOLECULE
ASD01720102
  61   64    0    0    0
SMALL
NO_CHARGES


@<TRIPOS>ATOM
   1 C1            -0.0529     1.3662    -0.0161 C.ar    
   2 C2            -0.0527    -0.0024    -0.0235 C.ar    
   3 C3             1.1410    -0.6906     0.1866 C.ar    
   4 N4             2.2775    -0.0401     0.3937 N.ar    
   5 C5             2.3258     1.2808     0.4095 C.ar    
   6 C6             1.1600     2.0357     0.2048 C.ar    
   7 N7             1.1399    -2.0750     0.1793 N.3     
   8 O8             3.5060     1.9091     0.6243 O.3     
   9 C9             4.6540     1.0822     0.8255 C.3     
  10 C10            5.8842     1.9635     1.0506 C.3     
  11 C11            7.1133     1.0782     1.2660 C.3     
  12 C12            8.3626     1.9558     1.3668 C.3     
  13 C13            6.9457     0.2789     2.5598 C.3     
  14 C14            1.2096     3.5067     0.2212 C.2     
  15 O15            2.2664     4.0775     0.4136 O.2     
  16 C16            2.5047    -2.6098     0.4208 C.3     
  17 C17            2.4629    -4.0487    -0.1369 C.3     
  18 C18            1.3244    -4.0423    -1.1777 C.3     
  19 C19            0.7741    -2.6000    -1.1614 C.3     
  20 C20            2.7732    -4.2565    -1.6206 C.3     
  21 C21            3.1673    -5.6431    -2.0602 C.2     
  22 O22            3.2283    -6.5387    -1.2515 O.2     
  23 O23            3.4505    -5.8830    -3.3501 O.3     
  24 N24            0.0841     4.2211     0.0230 N.am    
  25 C25            0.1117     5.6152     0.1354 C.ar    
  26 C26            1.2634     7.7019    -0.1746 C.ar    
  27 C27            1.2312     6.3240    -0.2835 C.ar    
  28 C28           -0.9801     6.2903     0.6594 C.ar    
  29 C29           -0.9475     7.6801     0.7694 C.ar    
  30 C30            0.1843     8.3825     0.3510 C.ar    
  31 C31           -2.1079     8.4075     1.3267 C.2     
  32 O32           -3.0924     7.7941     1.6900 O.2     
  33 N33           -2.0740     9.7507     1.4319 N.am    
  34 H34           -0.9660     1.9188    -0.1812 H       
  35 H35           -0.9712    -0.5454    -0.1906 H       
  36 H36            4.4967     0.4481     1.6980 H       
  37 H37            4.8105     0.4576    -0.0540 H       
  38 H38            6.0415     2.5976     0.1781 H       
  39 H39            5.7277     2.5881     1.9301 H       
  40 H40            7.2183     0.3917     0.4258 H       
  41 H41            8.2575     2.6422     2.2069 H       
  42 H42            9.2382     1.3250     1.5202 H       
  43 H43            8.4819     2.5252     0.4451 H       
  44 H44            6.0557    -0.3462     2.4880 H       
  45 H45            7.8214    -0.3518     2.7132 H       
  46 H46            6.8407     0.9654     3.3999 H       
  47 H47            3.2458    -2.0160    -0.1142 H       
  48 H48            2.7248    -2.6220     1.4883 H       
  49 H49            2.5897    -4.8684     0.5704 H       
  50 H50            0.6037    -4.8572    -1.2453 H       
  51 H51           -0.3089    -2.6050    -1.2852 H       
  52 H52            1.2444    -2.0048    -1.9440 H       
  53 H53            3.2625    -3.4394    -2.1508 H       
  54 H54            3.6983    -6.7880    -3.5842 H       
  55 H55           -0.7451     3.7687    -0.1975 H       
  56 H56            2.1362     8.2473    -0.5018 H       
  57 H57            2.0791     5.7968    -0.6953 H       
  58 H58           -1.8530     5.7417     0.9811 H       
  59 H59            0.2134     9.4588     0.4347 H       
  60 H60           -1.2884    10.2403     1.1420 H       
  61 H61           -2.8353    10.2279     1.7976 H       
@<TRIPOS>BOND
   1    1    2 ar
   2    1    6 ar
   3    1   34 1
   4    2    3 ar
   5    2   35 1
   6    3    4 ar
   7    3    7 1
   8    4    5 ar
   9    5    6 ar
  10    5    8 1
  11    6   14 1
  12    7   16 1
  13    7   19 1
  14    8    9 1
  15    9   10 1
  16    9   36 1
  17    9   37 1
  18   10   11 1
  19   10   38 1
  20   10   39 1
  21   11   12 1
  22   11   13 1
  23   11   40 1
  24   12   41 1
  25   12   42 1
  26   12   43 1
  27   13   44 1
  28   13   45 1
  29   13   46 1
  30   14   15 2
  31   14   24 am
  32   16   17 1
  33   16   47 1
  34   16   48 1
  35   17   18 1
  36   17   20 1
  37   17   49 1
  38   18   19 1
  39   18   20 1
  40   18   50 1
  41   19   51 1
  42   19   52 1
  43   20   21 1
  44   20   53 1
  45   21   22 2
  46   21   23 1
  47   23   54 1
  48   24   25 1
  49   24   55 1
  50   25   28 ar
  51   25   27 ar
  52   26   27 ar
  53   26   30 ar
  54   26   56 1
  55   27   57 1
  56   28   29 ar
  57   28   58 1
  58   29   30 ar
  59   29   31 1
  60   30   59 1
  61   31   32 2
  62   31   33 am
  63   33   60 1
  64   33   61 1

#	End of record

