#	Name: ASD01410525
#	Creating user name:	WinNT
#	Creation time:	15. 06. 2019 19:18

#	Modifying user name:	WinNT
#	Modification time:	15. 06. 2019 19:18

#	Program:	/corina/corina34_cracker 3.40 0067  02.08.2006

@<TRIPOS>MOLECULE
ASD01410525
  77   80    0    0    0
SMALL
NO_CHARGES


@<TRIPOS>ATOM
   1 C1             3.0937     5.6746    -2.0197 C.ar    
   2 C2             3.8831     5.4471    -3.1383 C.ar    
   3 C3             4.8354     4.4476    -3.1013 C.ar    
   4 N4             5.0011     3.7112    -2.0193 N.ar    
   5 C5             4.2682     3.8978    -0.9337 C.ar    
   6 C6             3.2918     4.8851    -0.9002 C.ar    
   7 O7             4.4720     3.1170     0.1568 O.3     
   8 C8             5.3634     2.0950     0.0529 C.ar    
   9 C9             6.7259     2.3451     0.1956 C.ar    
  10 C10            7.6398     1.3129     0.0917 C.ar    
  11 C11            7.2036     0.0195    -0.1564 C.ar    
  12 C12            5.8310    -0.2381    -0.3011 C.ar    
  13 C13            4.9140     0.8113    -0.1882 C.ar    
  14 F14            7.1569     3.6027     0.4364 F       
  15 N15            8.1246    -1.0203    -0.2620 N.am    
  16 C16            8.5997    -1.6152     0.8501 C.2     
  17 C17            8.5767    -1.4671    -1.5819 C.3     
  18 O18            9.3605    -2.5589     0.7569 O.2     
  19 C19            8.1960    -1.1206     2.1825 C.ar    
  20 C20            9.0467    -1.2829     3.2778 C.ar    
  21 C21            8.6646    -0.8187     4.5187 C.ar    
  22 C22            7.4394    -0.1929     4.6800 C.ar    
  23 C23            6.5912    -0.0290     3.5973 C.ar    
  24 C24            6.9647    -0.4838     2.3503 C.ar    
  25 C25            3.7027     6.2814    -4.3802 C.3     
  26 C26            7.8334    -0.6857    -2.6671 C.3     
  27 C27           10.0808    -1.2211    -1.7160 C.3     
  28 Cl28           6.9648     0.3878     6.2456 Cl      
  29 C29            5.6783    -0.4255    -3.6835 C.3     
  30 O30            6.4655    -1.0981    -2.6988 O.3     
  31 O31           10.7883    -2.1142    -0.8535 O.3     
  32 C32           12.2088    -1.9664    -0.9026 C.3     
  33 N33            4.5772     7.4597    -4.3098 N.3     
  34 C34            4.6085     8.1694    -5.5950 C.3     
  35 C35            5.9296     7.0862    -3.8764 C.3     
  36 C36            6.7691     8.3497    -3.6744 C.3     
  37 C37            6.8320     9.1306    -4.9900 C.3     
  38 C38            5.4086     9.4652    -5.4443 C.3     
  39 F39            5.4551    10.1311    -6.6738 F       
  40 F40            4.7947    10.2850    -4.4913 F       
  41 C41            5.3591    -1.6078    -0.5645 C.2     
  42 O42            6.1436    -2.5357    -0.5415 O.2     
  43 O43            4.0572    -1.8324    -0.8312 O.3     
  44 C44            2.4598     5.0944     0.3388 C.3     
  45 F45            1.5549     6.1391     0.1218 F       
  46 F46            1.7561     3.9212     0.6316 F       
  47 F47            3.2958     5.4172     1.4130 F       
  48 H48            2.3449     6.4528    -2.0212 H       
  49 H49            5.4520     4.2662    -3.9692 H       
  50 H50            8.6950     1.5138     0.2034 H       
  51 H51            3.8568     0.6201    -0.2985 H       
  52 H52            8.3711    -2.5315    -1.6953 H       
  53 H53           10.0019    -1.7712     3.1534 H       
  54 H54            9.3217    -0.9436     5.3666 H       
  55 H55            5.6372     0.4597     3.7292 H       
  56 H56            6.3025    -0.3555     1.5068 H       
  57 H57            3.9621     5.6884    -5.2572 H       
  58 H58            2.6640     6.6037    -4.4537 H       
  59 H59            7.8863     0.3807    -2.4477 H       
  60 H60            8.2942    -0.8808    -3.6355 H       
  61 H61           10.3867    -1.3940    -2.7478 H       
  62 H62           10.3069    -0.1918    -1.4377 H       
  63 H63            5.6865     0.6463    -3.4852 H       
  64 H64            6.0944    -0.6151    -4.6730 H       
  65 H65            4.6534    -0.7945    -3.6435 H       
  66 H66           12.5588    -2.1547    -1.9176 H       
  67 H67           12.4790    -0.9525    -0.6074 H       
  68 H68           12.6721    -2.6791    -0.2204 H       
  69 H69            5.0796     7.5372    -6.3476 H       
  70 H70            3.5903     8.4052    -5.9046 H       
  71 H71            5.8710     6.5352    -2.9377 H       
  72 H72            6.3945     6.4590    -4.6370 H       
  73 H73            6.3123     8.9709    -2.9040 H       
  74 H74            7.7774     8.0715    -3.3678 H       
  75 H75            7.3927    10.0531    -4.8396 H       
  76 H76            7.3239     8.5241    -5.7504 H       
  77 H77            3.7949    -2.7481    -0.9976 H       
@<TRIPOS>BOND
   1    1    2 ar
   2    1    6 ar
   3    1   48 1
   4    2    3 ar
   5    2   25 1
   6    3    4 ar
   7    3   49 1
   8    4    5 ar
   9    5    6 ar
  10    5    7 1
  11    6   44 1
  12    7    8 1
  13    8    9 ar
  14    8   13 ar
  15    9   10 ar
  16    9   14 1
  17   10   11 ar
  18   10   50 1
  19   11   12 ar
  20   11   15 1
  21   12   13 ar
  22   12   41 1
  23   13   51 1
  24   15   16 am
  25   15   17 1
  26   16   18 2
  27   16   19 1
  28   17   27 1
  29   17   26 1
  30   17   52 1
  31   19   20 ar
  32   19   24 ar
  33   20   21 ar
  34   20   53 1
  35   21   22 ar
  36   21   54 1
  37   22   23 ar
  38   22   28 1
  39   23   24 ar
  40   23   55 1
  41   24   56 1
  42   25   33 1
  43   25   57 1
  44   25   58 1
  45   26   30 1
  46   26   59 1
  47   26   60 1
  48   27   31 1
  49   27   61 1
  50   27   62 1
  51   29   30 1
  52   29   63 1
  53   29   64 1
  54   29   65 1
  55   31   32 1
  56   32   66 1
  57   32   67 1
  58   32   68 1
  59   33   34 1
  60   33   35 1
  61   34   38 1
  62   34   69 1
  63   34   70 1
  64   35   36 1
  65   35   71 1
  66   35   72 1
  67   36   37 1
  68   36   73 1
  69   36   74 1
  70   37   38 1
  71   37   75 1
  72   37   76 1
  73   38   39 1
  74   38   40 1
  75   41   42 2
  76   41   43 1
  77   43   77 1
  78   44   45 1
  79   44   46 1
  80   44   47 1

#	End of record

