#	Name: ASD03331429
#	Creating user name:	WinNT
#	Creation time:	15. 06. 2019 20:39

#	Modifying user name:	WinNT
#	Modification time:	15. 06. 2019 20:39

#	Program:	/corina/corina34_cracker 3.40 0067  02.08.2006

@<TRIPOS>MOLECULE
ASD03331429
  79   83    0    0    0
SMALL
NO_CHARGES


@<TRIPOS>ATOM
   1 N1            -1.0203     1.2107    -0.7736 N.am    
   2 C2            -1.0935    -0.2566    -0.7534 C.3     
   3 C3            -1.9313    -0.7250    -1.9473 C.3     
   4 C4            -1.3461    -0.1426    -3.2359 C.3     
   5 C5            -1.4004     1.3858    -3.1776 C.3     
   6 C6            -0.5565     1.8781    -1.9976 C.3     
   7 C7             0.0857    -0.5888    -3.3836 C.2     
   8 O8             0.9888     0.1557    -3.0657 O.2     
   9 N9             0.3627    -1.8153    -3.8689 N.am    
  10 N10           -2.1273    -0.6165    -4.3861 N.3     
  11 C11           -1.6332    -0.0262    -5.6372 C.3     
  12 C12           -2.5057    -0.4723    -6.7821 C.ar    
  13 C13           -3.6135     0.2739    -7.1379 C.ar    
  14 C14           -4.4146    -0.1359    -8.1900 C.ar    
  15 C15           -4.1049    -1.2932    -8.8847 C.ar    
  16 C16           -2.9970    -2.0374    -8.5272 C.ar    
  17 C17           -2.1947    -1.6243    -7.4796 C.ar    
  18 F18           -5.4978     0.5923    -8.5383 F       
  19 C19           -1.3771     1.9310     0.3082 C.2     
  20 O20           -1.8440     1.3734     1.2831 O.2     
  21 N21           -1.6090     5.5638     0.4711 N.pl3   
  22 C22           -2.1741     4.3354     0.5689 C.2     
  23 C23           -1.2015     3.3934     0.3099 C.2     
  24 C24            0.0008     4.0993     0.0452 C.2     
  25 C25           -0.2790     5.4234     0.1510 C.2     
  26 C26           -3.6155     4.0492     0.9029 C.3     
  27 C27           -4.4366     3.9940    -0.3869 C.3     
  28 C28           -5.9000     3.7035    -0.0479 C.3     
  29 C29           -6.7211     3.6483    -1.3377 C.3     
  30 O30           -8.0879     3.3770    -1.0210 O.3     
  31 C31            0.6840     6.5284    -0.0446 C.ar    
  32 C32            1.9232     6.5009     0.5994 C.ar    
  33 C33            2.8178     7.5354     0.4122 C.ar    
  34 C34            2.4884     8.5983    -0.4119 C.ar    
  35 C35            1.2613     8.6308    -1.0522 C.ar    
  36 C36            0.3609     7.5999    -0.8776 C.ar    
  37 Cl37           3.6184     9.8958    -0.6426 Cl      
  38 Cl38           2.3370     5.1691     1.6332 Cl      
  39 C39           -2.2752     6.7822     0.6602 C.ar    
  40 C40           -2.0817     7.5065     1.8289 C.ar    
  41 C41           -2.7390     8.7072     2.0126 C.ar    
  42 C42           -3.5899     9.1885     1.0332 C.ar    
  43 C43           -3.7848     8.4682    -0.1323 C.ar    
  44 C44           -3.1254     7.2698    -0.3233 C.ar    
  45 Cl45          -4.4146    10.6980     1.2671 Cl      
  46 H46           -0.0890    -0.6736    -0.8258 H       
  47 H47           -1.5622    -0.5864     0.1738 H       
  48 H48           -1.9138    -1.8136    -1.9993 H       
  49 H49           -2.9591    -0.3825    -1.8272 H       
  50 H50           -1.0050     1.7995    -4.1053 H       
  51 H51           -2.4332     1.7083    -3.0459 H       
  52 H52           -0.6710     2.9568    -1.8914 H       
  53 H53            0.4917     1.6351    -2.1715 H       
  54 H54           -0.3551    -2.3832    -4.1902 H       
  55 H55            1.2798    -2.1301    -3.8970 H       
  56 H56           -2.1232    -1.6243    -4.4354 H       
  57 H57           -1.6605     1.0609    -5.5617 H       
  58 H58           -0.6081    -0.3525    -5.8130 H       
  59 H59           -3.8542     1.1760    -6.5952 H       
  60 H60           -4.7294    -1.6140    -9.7054 H       
  61 H61           -2.7553    -2.9400    -9.0689 H       
  62 H62           -1.3264    -2.2043    -7.2038 H       
  63 H63            0.9595     3.6642    -0.1958 H       
  64 H64           -3.6856     3.0920     1.4195 H       
  65 H65           -4.0029     4.8388     1.5467 H       
  66 H66           -4.3664     4.9512    -0.9035 H       
  67 H67           -4.0491     3.2044    -1.0308 H       
  68 H68           -5.9701     2.7463     0.4688 H       
  69 H69           -6.2874     4.4931     0.5960 H       
  70 H70           -6.6509     4.6055    -1.8543 H       
  71 H71           -6.3336     2.8587    -1.9815 H       
  72 H72           -8.6682     3.3278    -1.7930 H       
  73 H73            3.7762     7.5159     0.9096 H       
  74 H74            1.0100     9.4627    -1.6934 H       
  75 H75           -0.5940     7.6245    -1.3816 H       
  76 H76           -1.4180     7.1311     2.5937 H       
  77 H77           -2.5890     9.2708     2.9216 H       
  78 H78           -4.4496     8.8457    -0.8951 H       
  79 H79           -3.2741     6.7104    -1.2351 H       
@<TRIPOS>BOND
   1    1    2 1
   2    1    6 1
   3    1   19 am
   4    2    3 1
   5    2   46 1
   6    2   47 1
   7    3    4 1
   8    3   48 1
   9    3   49 1
  10    4    5 1
  11    4    7 1
  12    4   10 1
  13    5    6 1
  14    5   50 1
  15    5   51 1
  16    6   52 1
  17    6   53 1
  18    7    8 2
  19    7    9 am
  20    9   54 1
  21    9   55 1
  22   10   11 1
  23   10   56 1
  24   11   12 1
  25   11   57 1
  26   11   58 1
  27   12   13 ar
  28   12   17 ar
  29   13   14 ar
  30   13   59 1
  31   14   15 ar
  32   14   18 1
  33   15   16 ar
  34   15   60 1
  35   16   17 ar
  36   16   61 1
  37   17   62 1
  38   19   20 2
  39   19   23 1
  40   21   22 1
  41   21   25 1
  42   21   39 1
  43   22   23 2
  44   22   26 1
  45   23   24 1
  46   24   25 2
  47   24   63 1
  48   25   31 1
  49   26   27 1
  50   26   64 1
  51   26   65 1
  52   27   28 1
  53   27   66 1
  54   27   67 1
  55   28   29 1
  56   28   68 1
  57   28   69 1
  58   29   30 1
  59   29   70 1
  60   29   71 1
  61   30   72 1
  62   31   32 ar
  63   31   36 ar
  64   32   33 ar
  65   32   38 1
  66   33   34 ar
  67   33   73 1
  68   34   35 ar
  69   34   37 1
  70   35   36 ar
  71   35   74 1
  72   36   75 1
  73   39   40 ar
  74   39   44 ar
  75   40   41 ar
  76   40   76 1
  77   41   42 ar
  78   41   77 1
  79   42   43 ar
  80   42   45 1
  81   43   44 ar
  82   43   78 1
  83   44   79 1

#	End of record

