#	Name: ASD03092051
#	Creating user name:	WinNT
#	Creation time:	15. 06. 2019 20:31

#	Modifying user name:	WinNT
#	Modification time:	15. 06. 2019 20:31

#	Program:	/corina/corina34_cracker 3.40 0067  02.08.2006

@<TRIPOS>MOLECULE
ASD03092051
  44   47    0    0    0
SMALL
NO_CHARGES


@<TRIPOS>ATOM
   1 N1            -0.1544     0.9715     0.1747 N.am    
   2 C2            -0.3498    -0.3813     0.0707 C.2     
   3 C3            -1.6931    -0.5921    -0.0264 C.2     
   4 C4            -2.3289     0.6591     0.0195 C.2     
   5 N5            -1.4114     1.5887     0.1453 N.2     
   6 N6            -3.7073     0.8772    -0.0506 N.pl3   
   7 C7            -4.2204     2.1680     0.1131 C.ar    
   8 C8            -5.5952     2.3685     0.1802 C.ar    
   9 C9            -6.0980     3.6464     0.3426 C.ar    
  10 C10           -5.2354     4.7231     0.4377 C.ar    
  11 C11           -3.3584     3.2518     0.2149 C.ar    
  12 C12            0.7025    -1.4203     0.0645 C.ar    
  13 C13            1.0345     1.5957     0.2904 C.2     
  14 C14            0.5058    -2.6470     0.7089 C.ar    
  15 C15            1.5141    -3.5880     0.6776 C.ar    
  16 N16            2.6497    -3.3436     0.0522 N.ar    
  17 C17            2.8761    -2.2008    -0.5676 C.ar    
  18 C18            1.9208    -1.2064    -0.5910 C.ar    
  19 C19            4.1942    -1.9816    -1.2643 C.3     
  20 N20            1.0933     2.9421     0.2718 N.am    
  21 O21            2.0533     0.9447     0.4114 O.2     
  22 C22            2.3856     3.6206     0.3975 C.3     
  23 C23            2.5053     5.0272    -0.1926 C.3     
  24 C24           -3.8683     4.5261     0.3713 C.ar    
  25 F25           -6.4378     1.3167     0.0864 F       
  26 C26            2.4583     4.8356     1.3246 C.3     
  27 H27           -2.1814    -1.5506    -0.1221 H       
  28 H28           -4.3084     0.1334    -0.2129 H       
  29 H29           -7.1652     3.8037     0.3949 H       
  30 H30           -5.6304     5.7203     0.5638 H       
  31 H31           -2.2903     3.0991     0.1677 H       
  32 H32           -0.4212    -2.8537     1.2230 H       
  33 H33            1.3720    -4.5375     1.1722 H       
  34 H34            2.1128    -0.2738    -1.1005 H       
  35 H35            4.1198    -2.3204    -2.2977 H       
  36 H36            4.4424    -0.9203    -1.2469 H       
  37 H37            4.9740    -2.5455    -0.7524 H       
  38 H38            0.2800     3.4618     0.1751 H       
  39 H39            3.2625     2.9756     0.3429 H       
  40 H40            3.4612     5.3076    -0.6351 H       
  41 H41            1.6226     5.4476    -0.6744 H       
  42 H42           -3.1979     5.3696     0.4460 H       
  43 H43            1.5447     5.1300     1.8410 H       
  44 H44            3.3833     4.9900     1.8803 H       
@<TRIPOS>BOND
   1    1    2 1
   2    1   13 am
   3    1    5 1
   4    2    3 2
   5    2   12 1
   6    3    4 1
   7    3   27 1
   8    4    5 2
   9    4    6 1
  10    6    7 1
  11    6   28 1
  12    7    8 ar
  13    7   11 ar
  14    8    9 ar
  15    8   25 1
  16    9   10 ar
  17    9   29 1
  18   10   24 ar
  19   10   30 1
  20   11   24 ar
  21   11   31 1
  22   12   14 ar
  23   12   18 ar
  24   13   20 am
  25   13   21 2
  26   14   15 ar
  27   14   32 1
  28   15   16 ar
  29   15   33 1
  30   16   17 ar
  31   17   18 ar
  32   17   19 1
  33   18   34 1
  34   19   35 1
  35   19   36 1
  36   19   37 1
  37   20   22 1
  38   20   38 1
  39   22   23 1
  40   22   26 1
  41   22   39 1
  42   23   26 1
  43   23   40 1
  44   23   41 1
  45   24   42 1
  46   26   43 1
  47   26   44 1

#	End of record

