#	Name: ASD05490011
#	Creating user name:	WinNT
#	Creation time:	15. 06. 2019 21:00

#	Modifying user name:	WinNT
#	Modification time:	15. 06. 2019 21:00

#	Program:	/corina/corina34_cracker 3.40 0067  02.08.2006

@<TRIPOS>MOLECULE
ASD05490011
  67   71    0    0    0
SMALL
NO_CHARGES


@<TRIPOS>ATOM
   1 O1            -0.0173     1.4248     0.0099 O.3     
   2 N2             2.7162     5.3699     0.0053 N.am    
   3 N3             2.2880     1.3303    -0.0126 N.ar    
   4 C4             3.4867     1.9104    -0.0211 C.ar    
   5 C5             1.1817     2.0564     0.0018 C.ar    
   6 N6             1.2086     3.3789     0.0091 N.ar    
   7 C7             2.3660     4.0319     0.0015 C.ar    
   8 C8             3.5555     3.3024    -0.0142 C.ar    
   9 N9             4.6434     1.1447    -0.0366 N.pl3   
  10 C10            4.0594     5.4635    -0.0126 C.2     
  11 N11            4.5983     4.2283    -0.0196 N.am    
  12 O12            4.6902     6.5042    -0.0150 O.2     
  13 C13            1.7812     6.4976     0.0199 C.3     
  14 C14            1.4739     6.8769     1.4457 C.ar    
  15 C15            2.2557     7.8155     2.0941 C.ar    
  16 C16            1.9792     8.1683     3.4029 C.ar    
  17 C17            0.9209     7.5844     4.0688 C.ar    
  18 C18            0.1298     6.6380     3.4203 C.ar    
  19 C19            0.4091     6.2909     2.1002 C.ar    
  20 C20           -1.0095     6.0066     4.1311 C.ar    
  21 C21            0.0021    -0.0041     0.0020 C.3     
  22 C22           -1.4333    -0.5336     0.0129 C.3     
  23 C23           -1.4126    -2.0635     0.0045 C.3     
  24 C24           -2.8479    -2.5931     0.0153 C.3     
  25 C25           -1.2922     6.3578     5.4496 C.ar    
  26 C26           -2.3531     5.7674     6.1060 C.ar    
  27 C27           -3.1350     4.8287     5.4575 C.ar    
  28 C28           -2.8586     4.4759     4.1488 C.ar    
  29 C29           -1.8040     5.0646     3.4808 C.ar    
  30 C30           -4.2920     4.1874     6.1794 C.3     
  31 N31           -5.5059     4.9866     5.9659 N.3     
  32 C32           -6.7008     4.2729     6.4526 C.3     
  33 C33           -5.4153     6.2853     6.6667 C.3     
  34 C34           -6.8668     6.5988     7.1078 C.3     
  35 C35           -7.3911     5.1884     7.4854 C.3     
  36 H36            4.5841     0.1765    -0.0414 H       
  37 H37            5.5114     1.5775    -0.0427 H       
  38 H38            5.5456     4.0197    -0.0267 H       
  39 H39            2.2297     7.3481    -0.4936 H       
  40 H40            0.8594     6.2120    -0.4868 H       
  41 H41            3.0853     8.2744     1.5770 H       
  42 H42            2.5929     8.9018     3.9046 H       
  43 H43            0.7063     7.8600     5.0908 H       
  44 H44           -0.2009     5.5581     1.5929 H       
  45 H45            0.5123    -0.3556    -0.8948 H       
  46 H46            0.5293    -0.3651     0.8851 H       
  47 H47           -1.9435    -0.1821     0.9097 H       
  48 H48           -1.9605    -0.1726    -0.8702 H       
  49 H49           -0.9024    -2.4150    -0.8923 H       
  50 H50           -0.8854    -2.4246     0.8875 H       
  51 H51           -2.8332    -3.6829     0.0093 H       
  52 H52           -3.3581    -2.2415     0.9121 H       
  53 H53           -3.3751    -2.2320    -0.8677 H       
  54 H54           -0.6821     7.0905     5.9570 H       
  55 H55           -2.5729     6.0387     7.1280 H       
  56 H56           -3.4718     3.7418     3.6474 H       
  57 H57           -1.5890     4.7885     2.4591 H       
  58 H58           -4.4477     3.1800     5.7935 H       
  59 H59           -4.0723     4.1381     7.2459 H       
  60 H60           -7.3780     4.0742     5.6219 H       
  61 H61           -6.4061     3.3362     6.9258 H       
  62 H62           -4.7638     6.2025     7.5366 H       
  63 H63           -5.0494     7.0571     5.9896 H       
  64 H64           -6.8774     7.2635     7.9717 H       
  65 H65           -7.4423     7.0219     6.2845 H       
  66 H66           -8.4749     5.1393     7.3803 H       
  67 H67           -7.0887     4.9232     8.4984 H       
@<TRIPOS>BOND
   1    1   21 1
   2    1    5 1
   3    2   13 1
   4    2    7 1
   5    2   10 am
   6    3    4 ar
   7    3    5 ar
   8    4    9 1
   9    4    8 ar
  10    5    6 ar
  11    6    7 ar
  12    7    8 ar
  13    8   11 1
  14    9   36 1
  15    9   37 1
  16   10   11 am
  17   10   12 2
  18   11   38 1
  19   13   14 1
  20   13   39 1
  21   13   40 1
  22   14   15 ar
  23   14   19 ar
  24   15   16 ar
  25   15   41 1
  26   16   17 ar
  27   16   42 1
  28   17   18 ar
  29   17   43 1
  30   18   19 ar
  31   18   20 1
  32   19   44 1
  33   20   25 ar
  34   20   29 ar
  35   21   22 1
  36   21   45 1
  37   21   46 1
  38   22   23 1
  39   22   47 1
  40   22   48 1
  41   23   24 1
  42   23   49 1
  43   23   50 1
  44   24   51 1
  45   24   52 1
  46   24   53 1
  47   25   26 ar
  48   25   54 1
  49   26   27 ar
  50   26   55 1
  51   27   28 ar
  52   27   30 1
  53   28   29 ar
  54   28   56 1
  55   29   57 1
  56   30   31 1
  57   30   58 1
  58   30   59 1
  59   31   32 1
  60   31   33 1
  61   32   35 1
  62   32   60 1
  63   32   61 1
  64   33   34 1
  65   33   62 1
  66   33   63 1
  67   34   35 1
  68   34   64 1
  69   34   65 1
  70   35   66 1
  71   35   67 1

#	End of record

