#	Name: ASD04882149
#	Creating user name:	WinNT
#	Creation time:	15. 06. 2019 20:54

#	Modifying user name:	WinNT
#	Modification time:	15. 06. 2019 20:54

#	Program:	/corina/corina34_cracker 3.40 0067  02.08.2006

@<TRIPOS>MOLECULE
ASD04882149
  85   89    0    0    0
SMALL
NO_CHARGES


@<TRIPOS>ATOM
   1 C1            -0.3426     1.0200     0.4124 C.2     
   2 C2            -0.2829    -0.3402    -0.1446 C.2     
   3 C3             0.8547    -1.2771    -0.1613 C.2     
   4 N4             1.7185    -1.2699    -1.1959 N.am    
   5 C5             2.8650    -2.0747    -1.1570 C.ar    
   6 C6             3.3648    -2.6372    -2.3347 C.ar    
   7 C7             4.5021    -3.4359    -2.2976 C.ar    
   8 C8             5.1402    -3.6758    -1.1010 C.ar    
   9 C9             4.6455    -3.1163     0.0805 C.ar    
  10 C10            3.5056    -2.3083     0.0451 C.ar    
  11 N11            2.7226    -2.3977    -3.5468 N.3     
  12 C12            1.3869    -3.0102    -3.5651 C.3     
  13 C13            3.5333    -2.8751    -4.6757 C.3     
  14 C14            2.8314    -2.5228    -5.9894 C.3     
  15 N15            1.4957    -3.1353    -6.0077 N.3     
  16 C16            0.6850    -2.6579    -4.8788 C.3     
  17 C17            0.8514    -2.8951    -7.2235 C.ar    
  18 C18            0.4586    -3.9590    -8.0252 C.ar    
  19 C19            0.5971    -1.5914    -7.6309 C.ar    
  20 C20           -0.0400    -1.3575    -8.8335 C.ar    
  21 C21           -0.4251    -2.4191    -9.6319 C.ar    
  22 C22           -0.1782    -3.7179    -9.2269 C.ar    
  23 C23            5.3292    -3.3734     1.3623 C.2     
  24 N24            6.4316    -4.1482     1.3945 N.am    
  25 O25            4.8982    -2.8862     2.3896 O.2     
  26 C26           -1.5493    -0.5218    -0.6449 C.2     
  27 O27           -2.2187     0.6049    -0.3907 O.3     
  28 N28           -1.5555     1.4307     0.1872 N.2     
  29 O29            1.0140    -2.0568     0.7585 O.2     
  30 C30            0.7273    -5.3749    -7.5847 C.3     
  31 C31            7.1105    -4.4034     2.6674 C.3     
  32 C32            8.3232    -5.3047     2.4268 C.3     
  33 C33            9.0323    -5.5713     3.7561 C.3     
  34 N34           10.1935    -6.4343     3.5257 N.am    
  35 C35           11.4294    -5.9847     3.2481 C.2     
  36 C36           10.1581    -7.9007     3.5745 C.3     
  37 C37           11.4451    -8.3680     2.8592 C.3     
  38 C38           12.3768    -7.1491     3.0607 C.3     
  39 O39           11.7398    -4.8155     3.1600 O.2     
  40 C40            0.7643     1.7743     1.1029 C.3     
  41 C41            1.5637     2.5679     0.0675 C.3     
  42 C42           -2.0777    -1.7487    -1.3424 C.3     
  43 C43           -2.6806    -2.7028    -0.3094 C.3     
  44 H44            1.5466    -0.7075    -1.9673 H       
  45 H45            4.8859    -3.8695    -3.2093 H       
  46 H46            6.0233    -4.2970    -1.0754 H       
  47 H47            3.1213    -1.8743     0.9564 H       
  48 H48            1.4821    -4.0929    -3.4827 H       
  49 H49            0.8016    -2.6315    -2.7272 H       
  50 H50            4.5128    -2.3979    -4.6474 H       
  51 H51            3.6529    -3.9563    -4.6059 H       
  52 H52            2.7361    -1.4401    -6.0718 H       
  53 H53            3.4166    -2.9015    -6.8273 H       
  54 H54           -0.2946    -3.1350    -4.9070 H       
  55 H55            0.5653    -1.5767    -4.9485 H       
  56 H56            0.8969    -0.7620    -7.0076 H       
  57 H57           -0.2380    -0.3443    -9.1508 H       
  58 H58           -0.9238    -2.2334   -10.5716 H       
  59 H59           -0.4801    -4.5446    -9.8528 H       
  60 H60            6.7754    -4.5368     0.5750 H       
  61 H61           -0.1175    -5.7403    -7.0009 H       
  62 H62            0.8644    -6.0083    -8.4611 H       
  63 H63            1.6295    -5.4002    -6.9734 H       
  64 H64            7.4401    -3.4585     3.0993 H       
  65 H65            6.4221    -4.8962     3.3539 H       
  66 H66            7.9936    -6.2497     1.9949 H       
  67 H67            9.0116    -4.8119     1.7402 H       
  68 H68            9.3618    -4.6264     4.1880 H       
  69 H69            8.3438    -6.0641     4.4426 H       
  70 H70           10.1557    -8.2437     4.6091 H       
  71 H71            9.2784    -8.2744     3.0504 H       
  72 H72           11.8575    -9.2557     3.3388 H       
  73 H73           11.2592    -8.5492     1.8006 H       
  74 H74           13.0003    -6.9958     2.1798 H       
  75 H75           12.9951    -7.2841     3.9481 H       
  76 H76            0.3358     2.4596     1.8342 H       
  77 H77            1.4240     1.0692     1.6086 H       
  78 H78            2.3644     3.1135     0.5669 H       
  79 H79            1.9922     1.8826    -0.6639 H       
  80 H80            0.9040     3.2730    -0.4383 H       
  81 H81           -2.8453    -1.4569    -2.0591 H       
  82 H82           -1.2626    -2.2482    -1.8662 H       
  83 H83           -3.0627    -3.5902    -0.8139 H       
  84 H84           -1.9129    -2.9946     0.4073 H       
  85 H85           -3.4956    -2.2033     0.2144 H       
@<TRIPOS>BOND
   1    1    2 1
   2    1   40 1
   3    1   28 2
   4    2    3 1
   5    2   26 2
   6    3    4 am
   7    3   29 2
   8    4    5 1
   9    4   44 1
  10    5    6 ar
  11    5   10 ar
  12    6    7 ar
  13    6   11 1
  14    7    8 ar
  15    7   45 1
  16    8    9 ar
  17    8   46 1
  18    9   10 ar
  19    9   23 1
  20   10   47 1
  21   11   12 1
  22   11   13 1
  23   12   16 1
  24   12   48 1
  25   12   49 1
  26   13   14 1
  27   13   50 1
  28   13   51 1
  29   14   15 1
  30   14   52 1
  31   14   53 1
  32   15   16 1
  33   15   17 1
  34   16   54 1
  35   16   55 1
  36   17   18 ar
  37   17   19 ar
  38   18   30 1
  39   18   22 ar
  40   19   20 ar
  41   19   56 1
  42   20   21 ar
  43   20   57 1
  44   21   22 ar
  45   21   58 1
  46   22   59 1
  47   23   24 am
  48   23   25 2
  49   24   31 1
  50   24   60 1
  51   26   27 1
  52   26   42 1
  53   27   28 1
  54   30   61 1
  55   30   62 1
  56   30   63 1
  57   31   32 1
  58   31   64 1
  59   31   65 1
  60   32   33 1
  61   32   66 1
  62   32   67 1
  63   33   34 1
  64   33   68 1
  65   33   69 1
  66   34   35 am
  67   34   36 1
  68   35   39 2
  69   35   38 1
  70   36   37 1
  71   36   70 1
  72   36   71 1
  73   37   38 1
  74   37   72 1
  75   37   73 1
  76   38   74 1
  77   38   75 1
  78   40   41 1
  79   40   76 1
  80   40   77 1
  81   41   78 1
  82   41   79 1
  83   41   80 1
  84   42   43 1
  85   42   81 1
  86   42   82 1
  87   43   83 1
  88   43   84 1
  89   43   85 1

#	End of record

