#	Name: ASD03930015
#	Creating user name:	WinNT
#	Creation time:	15. 06. 2019 20:47

#	Modifying user name:	WinNT
#	Modification time:	15. 06. 2019 20:47

#	Program:	/corina/corina34_cracker 3.40 0067  02.08.2006

@<TRIPOS>MOLECULE
ASD03930015
  29   31    0    0    0
SMALL
NO_CHARGES


@<TRIPOS>ATOM
   1 C1            -0.0164     1.3553     0.0095 C.ar    
   2 C2            -0.0110     0.0204     0.2672 C.ar    
   3 C3            -1.1949    -0.7070     0.2636 C.ar    
   4 C4            -2.4028    -0.1156     0.0047 C.ar    
   5 C5            -2.4497     1.2652    -0.2340 C.ar    
   6 C6            -1.2360     2.0068    -0.2435 C.ar    
   7 C7            -3.6065    -1.0185    -0.0258 C.3     
   8 N8            -4.8157    -0.3131     0.4163 N.am    
   9 S9            -5.1840     1.0988    -0.3940 S.o2    
  10 C10           -3.6479     1.9736    -0.4433 C.ar    
  11 C11           -3.6392     3.3088    -0.6843 C.ar    
  12 C12           -2.4417     4.0212    -0.7260 C.ar    
  13 C13           -1.2590     3.3861    -0.5093 C.ar    
  14 O14           -5.4971     0.7377    -1.7322 O.2     
  15 O15           -6.0562     1.8422     0.4462 O.2     
  16 C16           -5.6522    -0.8201     1.5069 C.3     
  17 N17            1.2521     2.1182     0.0015 N.pl3   
  18 O18            2.2624     1.6153    -0.4567 O.2     
  19 O19            1.2856     3.2489     0.4530 O.2     
  20 H20            0.9230    -0.4798     0.4765 H       
  21 H21           -1.1616    -1.7666     0.4700 H       
  22 H22           -3.7560    -1.3792    -1.0435 H       
  23 H23           -3.4302    -1.8703     0.6310 H       
  24 H24           -4.5729     3.8268    -0.8465 H       
  25 H25           -2.4537     5.0822    -0.9272 H       
  26 H26           -0.3343     3.9430    -0.5450 H       
  27 H27           -5.3006    -0.4119     2.4545 H       
  28 H28           -6.6864    -0.5177     1.3424 H       
  29 H29           -5.5920    -1.9081     1.5354 H       
@<TRIPOS>BOND
   1    1    2 ar
   2    1   17 1
   3    1    6 ar
   4    2    3 ar
   5    2   20 1
   6    3    4 ar
   7    3   21 1
   8    4    5 ar
   9    4    7 1
  10    5    6 ar
  11    5   10 ar
  12    6   13 ar
  13    7    8 1
  14    7   22 1
  15    7   23 1
  16    8    9 am
  17    8   16 1
  18    9   10 1
  19    9   14 2
  20    9   15 2
  21   10   11 ar
  22   11   12 ar
  23   11   24 1
  24   12   13 ar
  25   12   25 1
  26   13   26 1
  27   16   27 1
  28   16   28 1
  29   16   29 1
  30   17   18 2
  31   17   19 2

#	End of record

