#	Name: ASD01814966
#	Creating user name:	WinNT
#	Creation time:	15. 06. 2019 19:33

#	Modifying user name:	WinNT
#	Modification time:	15. 06. 2019 19:33

#	Program:	/corina/corina34_cracker 3.40 0067  02.08.2006

@<TRIPOS>MOLECULE
ASD01814966
  47   50    0    0    0
SMALL
NO_CHARGES


@<TRIPOS>ATOM
   1 C1            -0.0169     1.3972     0.0097 C.2     
   2 C2             0.0021    -0.0041     0.0020 C.2     
   3 C3             1.1986    -0.6593    -0.0129 C.2     
   4 C4             2.3918     0.0821    -0.0204 C.2     
   5 N5             2.3437     1.4497    -0.0122 N.am    
   6 C6             1.1421     2.0937     0.0024 C.2     
   7 C7             3.6227    -0.5889    -0.0356 C.2     
   8 C8             4.7877     0.1218    -0.0425 C.2     
   9 C9             4.7345     1.5280    -0.0346 C.2     
  10 C10            3.4812     2.1736    -0.0189 C.2     
  11 O11            3.4258     3.3917    -0.0123 O.2     
  12 C12            5.9703     2.3140    -0.0413 C.2     
  13 O13            5.9124     3.6618    -0.0337 O.3     
  14 O14            7.0487     1.7516    -0.0537 O.2     
  15 C15            3.6593    -2.0954    -0.0439 C.3     
  16 N16            3.7787    -2.5747    -1.4274 N.3     
  17 C17            4.0551    -4.0182    -1.4629 C.3     
  18 C18            4.2308    -4.4631    -2.9172 C.3     
  19 O19            3.0591    -4.1177    -3.6610 O.3     
  20 C20            2.7606    -2.7191    -3.6483 C.3     
  21 C21            2.5700    -2.2565    -2.2014 C.3     
  22 H22            5.0970    -3.9617    -3.3491 H       
  23 C23            5.3172    -4.3080    -0.6920 C.ar    
  24 C24            5.3930    -5.4287     0.1137 C.ar    
  25 C25            6.5507    -5.6946     0.8208 C.ar    
  26 C26            7.6326    -4.8399     0.7219 C.ar    
  27 C27            7.5571    -3.7197    -0.0845 C.ar    
  28 C28            6.4010    -3.4562    -0.7950 C.ar    
  29 H29           -0.9605     1.9226     0.0170 H       
  30 H30           -0.9233    -0.5609     0.0082 H       
  31 H31            1.2282    -1.7389    -0.0187 H       
  32 H32            1.1156     3.1733     0.0087 H       
  33 H33            5.7393    -0.3889    -0.0536 H       
  34 H34            6.7544     4.1373    -0.0385 H       
  35 H35            4.5153    -2.4412     0.5356 H       
  36 H36            2.7412    -2.4836     0.3971 H       
  37 H37            3.2218    -4.5594    -1.0148 H       
  38 H38            4.3792    -5.5424    -2.9523 H       
  39 H39            3.5840    -2.1670    -4.1014 H       
  40 H40            1.8457    -2.5371    -4.2121 H       
  41 H41            1.7129    -2.7696    -1.7651 H       
  42 H42            2.3988    -1.1802    -2.1829 H       
  43 H43            4.5477    -6.0965     0.1909 H       
  44 H44            6.6097    -6.5698     1.4508 H       
  45 H45            8.5368    -5.0472     1.2750 H       
  46 H46            8.4023    -3.0518    -0.1615 H       
  47 H47            6.3420    -2.5810    -1.4250 H       
@<TRIPOS>BOND
   1    1    2 1
   2    1    6 2
   3    1   29 1
   4    2    3 2
   5    2   30 1
   6    3    4 1
   7    3   31 1
   8    4    5 1
   9    4    7 2
  10    5    6 1
  11    5   10 am
  12    6   32 1
  13    7   15 1
  14    7    8 1
  15    8    9 2
  16    8   33 1
  17    9   10 1
  18    9   12 1
  19   10   11 2
  20   12   13 1
  21   12   14 2
  22   13   34 1
  23   15   16 1
  24   15   35 1
  25   15   36 1
  26   16   17 1
  27   16   21 1
  28   17   18 1
  29   17   23 1
  30   17   37 1
  31   18   19 1
  32   18   22 1
  33   18   38 1
  34   19   20 1
  35   20   21 1
  36   20   39 1
  37   20   40 1
  38   21   41 1
  39   21   42 1
  40   23   24 ar
  41   23   28 ar
  42   24   25 ar
  43   24   43 1
  44   25   26 ar
  45   25   44 1
  46   26   27 ar
  47   26   45 1
  48   27   28 ar
  49   27   46 1
  50   28   47 1

#	End of record

