#	Name: ASD00311043
#	Creating user name:	WinNT
#	Creation time:	15. 06. 2019 18:34

#	Modifying user name:	WinNT
#	Modification time:	15. 06. 2019 18:34

#	Program:	/corina/corina34_cracker 3.40 0067  02.08.2006

@<TRIPOS>MOLECULE
ASD00311043
  39   42    0    0    0
SMALL
NO_CHARGES


@<TRIPOS>ATOM
   1 C1            -0.0172     1.4142     0.0098 C.ar    
   2 C2             0.0021    -0.0041     0.0020 C.ar    
   3 C3             1.2338    -0.6840    -0.0134 C.ar    
   4 C4             2.3962     0.0166    -0.0203 C.ar    
   5 C5             2.3906     1.4229    -0.0127 C.ar    
   6 C6             1.1938     2.1215     0.0021 C.ar    
   7 C7             4.8992     1.4521    -0.0346 C.2     
   8 C8             3.6711     2.1617    -0.0200 C.2     
   9 C9             7.3588     0.0018    -0.0640 C.ar    
  10 C10            7.3414     1.3946    -0.0563 C.ar    
  11 C11            6.0715     2.1284    -0.0412 C.2     
  12 C12            8.5637    -0.6856    -0.0777 C.ar    
  13 C13            9.7617    -0.0389    -0.0839 C.ar    
  14 C14            9.8219     1.3663    -0.0773 C.ar    
  15 C15            8.6170     2.1088    -0.0632 C.ar    
  16 O16            3.6716     3.3793    -0.0134 O.2     
  17 N17           10.9950     2.0072    -0.0842 N.ar    
  18 C18            8.6746     3.5096    -0.0567 C.ar    
  19 C19            9.9068     4.1040    -0.0642 C.ar    
  20 C20           11.0558     3.3168    -0.0781 C.ar    
  21 C21           -1.2137    -0.7077     0.0103 C.ar    
  22 C22           -2.3901    -0.0225     0.0257 C.ar    
  23 C23           -2.4095     1.3710     0.0329 C.ar    
  24 C24           -1.2523     2.0872     0.0311 C.ar    
  25 H25            1.2542    -1.7638    -0.0194 H       
  26 H26            3.3376    -0.5127    -0.0314 H       
  27 H27            1.1936     3.2015     0.0078 H       
  28 H28            4.8988     0.3721    -0.0404 H       
  29 H29            6.4283    -0.5465    -0.0546 H       
  30 H30            6.0719     3.2084    -0.0354 H       
  31 H31            8.5509    -1.7655    -0.0834 H       
  32 H32           10.6771    -0.6120    -0.0939 H       
  33 H33            7.7720     4.1026    -0.0463 H       
  34 H34            9.9883     5.1809    -0.0603 H       
  35 H35           12.0226     3.7981    -0.0839 H       
  36 H36           -1.2152    -1.7877     0.0042 H       
  37 H37           -3.3227    -0.5672     0.0321 H       
  38 H38           -3.3566     1.8900     0.0448 H       
  39 H39           -1.2821     3.1668     0.0371 H       
@<TRIPOS>BOND
   1    1    2 ar
   2    1    6 ar
   3    1   24 ar
   4    2    3 ar
   5    2   21 ar
   6    3    4 ar
   7    3   25 1
   8    4    5 ar
   9    4   26 1
  10    5    6 ar
  11    5    8 1
  12    6   27 1
  13    7    8 1
  14    7   11 2
  15    7   28 1
  16    8   16 2
  17    9   10 ar
  18    9   12 ar
  19    9   29 1
  20   10   11 1
  21   10   15 ar
  22   11   30 1
  23   12   13 ar
  24   12   31 1
  25   13   14 ar
  26   13   32 1
  27   14   15 ar
  28   14   17 ar
  29   15   18 ar
  30   17   20 ar
  31   18   19 ar
  32   18   33 1
  33   19   20 ar
  34   19   34 1
  35   20   35 1
  36   21   22 ar
  37   21   36 1
  38   22   23 ar
  39   22   37 1
  40   23   24 ar
  41   23   38 1
  42   24   39 1

#	End of record

