#	Name: ASD01814549
#	Creating user name:	WinNT
#	Creation time:	15. 06. 2019 19:32

#	Modifying user name:	WinNT
#	Modification time:	15. 06. 2019 19:32

#	Program:	/corina/corina34_cracker 3.40 0067  02.08.2006

@<TRIPOS>MOLECULE
ASD01814549
  72   75    0    0    0
SMALL
NO_CHARGES


@<TRIPOS>ATOM
   1 C1            -0.0168     1.3882     0.0097 C.ar    
   2 C2             0.0021    -0.0041     0.0020 C.ar    
   3 C3             1.1795    -0.6891    -0.0124 C.ar    
   4 C4             2.3944     0.0147    -0.0202 C.ar    
   5 C5             2.3745     1.4312    -0.0129 C.ar    
   6 C6             1.1424     2.1038     0.0024 C.ar    
   7 C7             3.6273    -0.6667    -0.0345 C.ar    
   8 C8             4.7911     0.0287    -0.0410 C.ar    
   9 C9             4.7929     1.4362    -0.0341 C.ar    
  10 C10            3.5923     2.1420    -0.0203 C.ar    
  11 O11            3.5945     3.4965    -0.0140 O.3     
  12 C12            3.5844     4.1511    -1.2841 C.3     
  13 C13            6.0721     2.1670    -0.0414 C.2     
  14 O14            6.0777     3.3832    -0.0354 O.2     
  15 N15            7.2362     1.4879    -0.0548 N.am    
  16 C16            3.6526    -2.1735    -0.0423 C.3     
  17 C17            3.5246    -2.6708    -1.4591 C.ar    
  18 C18            4.6569    -2.8812    -2.2320 C.ar    
  19 C19            2.2747    -2.9277    -1.9998 C.ar    
  20 C20            2.2005    -3.3844    -3.3064 C.ar    
  21 C21            3.3804    -3.5685    -4.0275 C.ar    
  22 N22            4.5595    -3.3150    -3.4687 N.ar    
  23 C23            8.5082     2.2146    -0.0621 C.3     
  24 C24            8.9010     2.5696     1.3734 C.3     
  25 C25            9.5942     1.3354    -0.6854 C.3     
  26 C26           10.9227     2.0944    -0.6931 C.3     
  27 C27           11.3155     2.4494     0.7424 C.3     
  28 C28           10.2295     3.3285     1.3658 C.3     
  29 O29            9.2274     1.0039    -2.0261 O.3     
  30 C30            3.3194    -4.0540    -5.4195 C.2     
  31 O31            2.2470    -4.2913    -5.9322 O.2     
  32 C32            4.5904    -4.2550    -6.2039 C.3     
  33 C33            4.2492    -4.7600    -7.6072 C.3     
  34 C34            5.5397    -4.9641    -8.4035 C.3     
  35 C35            5.1985    -5.4691    -9.8069 C.3     
  36 O36            6.4231    -5.6627   -10.5626 O.3     
  37 C37            6.2976    -6.1064   -11.8232 C.2     
  38 O38            7.2814    -6.2864   -12.5011 O.2     
  39 H39           -0.9635     1.9079     0.0170 H       
  40 H40           -0.9304    -0.5489     0.0080 H       
  41 H41            1.1785    -1.7691    -0.0175 H       
  42 H42            1.1136     3.1834     0.0085 H       
  43 H43            5.7301    -0.5049    -0.0514 H       
  44 H44            3.5874     5.2311    -1.1363 H       
  45 H45            4.4690     3.8595    -1.8503 H       
  46 H46            2.6891     3.8623    -1.8347 H       
  47 H47            7.2317     0.5179    -0.0596 H       
  48 H48            4.5938    -2.5232     0.3819 H       
  49 H49            2.8223    -2.5539     0.5527 H       
  50 H50            5.6324    -2.6853    -1.8118 H       
  51 H51            1.3787    -2.7758    -1.4162 H       
  52 H52            1.2430    -3.5950    -3.7595 H       
  53 H53            8.4011     3.1287    -0.6461 H       
  54 H54            8.1273     3.1959     1.8175 H       
  55 H55            9.0081     1.6555     1.9574 H       
  56 H56            9.7014     0.4214    -0.1014 H       
  57 H57           11.6964     1.4681    -1.1371 H       
  58 H58           10.8156     3.0085    -1.2771 H       
  59 H59           11.4226     1.5353     1.3264 H       
  60 H60           12.2619     2.9901     0.7370 H       
  61 H61           10.1223     4.2426     0.7818 H       
  62 H62           10.5093     3.5815     2.3884 H       
  63 H63            9.8717     0.4467    -2.4839 H       
  64 H64            5.1249    -3.3079    -6.2785 H       
  65 H65            5.2183    -4.9875    -5.6967 H       
  66 H66            3.7148    -5.7071    -7.5326 H       
  67 H67            3.6213    -4.0275    -8.1143 H       
  68 H68            6.0741    -4.0170    -8.4782 H       
  69 H69            6.1676    -5.6966    -7.8964 H       
  70 H70            4.6640    -6.4162    -9.7322 H       
  71 H71            4.5706    -4.7366   -10.3140 H       
  72 H72            5.3172    -6.3024   -12.2316 H       
@<TRIPOS>BOND
   1    1    2 ar
   2    1    6 ar
   3    1   39 1
   4    2    3 ar
   5    2   40 1
   6    3    4 ar
   7    3   41 1
   8    4    5 ar
   9    4    7 ar
  10    5    6 ar
  11    5   10 ar
  12    6   42 1
  13    7    8 ar
  14    7   16 1
  15    8    9 ar
  16    8   43 1
  17    9   10 ar
  18    9   13 1
  19   10   11 1
  20   11   12 1
  21   12   44 1
  22   12   45 1
  23   12   46 1
  24   13   14 2
  25   13   15 am
  26   15   23 1
  27   15   47 1
  28   16   17 1
  29   16   48 1
  30   16   49 1
  31   17   18 ar
  32   17   19 ar
  33   18   22 ar
  34   18   50 1
  35   19   20 ar
  36   19   51 1
  37   20   21 ar
  38   20   52 1
  39   21   22 ar
  40   21   30 1
  41   23   24 1
  42   23   25 1
  43   23   53 1
  44   24   28 1
  45   24   54 1
  46   24   55 1
  47   25   26 1
  48   25   29 1
  49   25   56 1
  50   26   27 1
  51   26   57 1
  52   26   58 1
  53   27   28 1
  54   27   59 1
  55   27   60 1
  56   28   61 1
  57   28   62 1
  58   29   63 1
  59   30   31 2
  60   30   32 1
  61   32   33 1
  62   32   64 1
  63   32   65 1
  64   33   34 1
  65   33   66 1
  66   33   67 1
  67   34   35 1
  68   34   68 1
  69   34   69 1
  70   35   36 1
  71   35   70 1
  72   35   71 1
  73   36   37 1
  74   37   38 2
  75   37   72 1

#	End of record

