#	Name: ASD01880877
#	Creating user name:	WinNT
#	Creation time:	15. 06. 2019 19:41

#	Modifying user name:	WinNT
#	Modification time:	15. 06. 2019 19:41

#	Program:	/corina/corina34_cracker 3.40 0067  02.08.2006

@<TRIPOS>MOLECULE
ASD01880877
  54   57    0    0    0
SMALL
NO_CHARGES


@<TRIPOS>ATOM
   1 N1            -0.0140     1.3174    -0.0040 N.ar    
   2 C2             0.0050    -0.0048    -0.0248 C.ar    
   3 N3             1.1407    -0.6834    -0.0536 N.ar    
   4 C4             2.3085    -0.0573    -0.0633 C.ar    
   5 C5             2.3346     1.3236    -0.0428 C.ar    
   6 C6             1.1200     2.0115    -0.0120 C.ar    
   7 C7             3.6436     2.0702    -0.0524 C.3     
   8 O8             4.7246     1.1361    -0.0838 O.3     
   9 C9             5.9813     1.6483    -0.0962 C.ar    
  10 C10            7.0796     0.7944    -0.1267 C.ar    
  11 C11            8.3503     1.3138    -0.1396 C.ar    
  12 C12            8.5492     2.6983    -0.1223 C.ar    
  13 C13            7.4426     3.5514    -0.0920 C.ar    
  14 C14            6.1700     3.0251    -0.0841 C.ar    
  15 C15            9.7219     0.6870    -0.1711 C.3     
  16 N16           10.6803     1.7981    -0.1702 N.am    
  17 C17            9.9994     2.9566    -0.1420 C.2     
  18 O18           10.5082     4.0609    -0.1342 O.2     
  19 C19            7.6417     5.0451    -0.0725 C.3     
  20 N20            1.0968     3.3975     0.0089 N.pl3   
  21 C21           -0.1212     4.0776    -0.0813 C.ar    
  22 C22           -0.3037     5.2723     0.6034 C.ar    
  23 C23           -1.5083     5.9416     0.5121 C.ar    
  24 C24           -2.5321     5.4237    -0.2598 C.ar    
  25 C25           -2.3538     4.2343    -0.9424 C.ar    
  26 C26           -1.1496     3.5631    -0.8604 C.ar    
  27 O27           -1.1682    -0.6819    -0.0158 O.3     
  28 C28           -1.0939    -2.1088    -0.0391 C.3     
  29 C29           12.6240     1.6416    -1.6463 C.3     
  30 C30           12.1391     1.6664    -0.1954 C.3     
  31 H31            3.2297    -0.6205    -0.0865 H       
  32 H32            3.6905     2.7100    -0.9336 H       
  33 H33            3.7190     2.6830     0.8459 H       
  34 H34            6.9326    -0.2754    -0.1398 H       
  35 H35            5.3153     3.6849    -0.0611 H       
  36 H36            9.8696     0.0640     0.7110 H       
  37 H37            9.8406     0.0906    -1.0758 H       
  38 H38            7.6736     5.4208    -1.0952 H       
  39 H39            6.8156     5.5148     0.4614 H       
  40 H40            8.5797     5.2801     0.4303 H       
  41 H41            1.9257     3.8954     0.0862 H       
  42 H42            0.4953     5.6772     1.2068 H       
  43 H43           -1.6510     6.8704     1.0445 H       
  44 H44           -3.4731     5.9491    -0.3295 H       
  45 H45           -3.1555     3.8324    -1.5442 H       
  46 H46           -1.0109     2.6344    -1.3940 H       
  47 H47           -0.5767    -2.4310    -0.9429 H       
  48 H48           -0.5473    -2.4585     0.8366 H       
  49 H49           -2.1012    -2.5252    -0.0289 H       
  50 H50           13.7094     1.5436    -1.6651 H       
  51 H51           12.1737     0.7955    -2.1655 H       
  52 H52           12.3342     2.5681    -2.1421 H       
  53 H53           12.5893     2.5125     0.3237 H       
  54 H54           12.4289     0.7399     0.3004 H       
@<TRIPOS>BOND
   1    1    2 ar
   2    1    6 ar
   3    2    3 ar
   4    2   27 1
   5    3    4 ar
   6    4    5 ar
   7    4   31 1
   8    5    6 ar
   9    5    7 1
  10    6   20 1
  11    7    8 1
  12    7   32 1
  13    7   33 1
  14    8    9 1
  15    9   10 ar
  16    9   14 ar
  17   10   11 ar
  18   10   34 1
  19   11   12 ar
  20   11   15 1
  21   12   13 ar
  22   12   17 1
  23   13   14 ar
  24   13   19 1
  25   14   35 1
  26   15   16 1
  27   15   36 1
  28   15   37 1
  29   16   17 am
  30   16   30 1
  31   17   18 2
  32   19   38 1
  33   19   39 1
  34   19   40 1
  35   20   21 1
  36   20   41 1
  37   21   22 ar
  38   21   26 ar
  39   22   23 ar
  40   22   42 1
  41   23   24 ar
  42   23   43 1
  43   24   25 ar
  44   24   44 1
  45   25   26 ar
  46   25   45 1
  47   26   46 1
  48   27   28 1
  49   28   47 1
  50   28   48 1
  51   28   49 1
  52   29   30 1
  53   29   50 1
  54   29   51 1
  55   29   52 1
  56   30   53 1
  57   30   54 1

#	End of record

