#	Name: ASD03092525
#	Creating user name:	WinNT
#	Creation time:	15. 06. 2019 20:32

#	Modifying user name:	WinNT
#	Modification time:	15. 06. 2019 20:32

#	Program:	/corina/corina34_cracker 3.40 0067  02.08.2006

@<TRIPOS>MOLECULE
ASD03092525
  32   34    0    0    0
SMALL
NO_CHARGES


@<TRIPOS>ATOM
   1 S1            -0.0218     1.7567     0.0117 S.3     
   2 C2             0.0021    -0.0041     0.0020 C.2     
   3 N3             1.2427    -0.4104    -0.0120 N.2     
   4 C4             2.1514     0.5291    -0.0156 C.2     
   5 C5             1.6885     1.7890    -0.0045 C.2     
   6 C6            -1.1843    -0.8763     0.0091 C.2     
   7 O7            -2.2981    -0.3879     0.0228 O.2     
   8 N8            -1.0360    -2.2158     0.0004 N.am    
   9 C9            -2.2163    -3.0836     0.0075 C.3     
  10 N10           -0.5856    -8.4702     0.2357 N.pl3   
  11 C11           -0.5231    -8.6388     1.5921 C.2     
  12 C12           -0.8625    -7.4971     2.2113 C.2     
  13 C13           -1.1672    -6.5172     1.1658 C.ar    
  14 C14           -1.5714    -5.1808     1.1763 C.ar    
  15 C15           -1.7796    -4.5259    -0.0046 C.ar    
  16 C16           -1.5924    -5.1785    -1.2155 C.ar    
  17 C17           -1.1943    -6.4968    -1.2489 C.ar    
  18 C18           -0.9766    -7.1832    -0.0585 C.ar    
  19 C19           -0.1318    -9.9170     2.2879 C.3     
  20 H20            3.2080     0.3057    -0.0266 H       
  21 H21            2.2983     2.6804    -0.0062 H       
  22 H22           -0.1477    -2.6054    -0.0105 H       
  23 H23           -2.8046    -2.8896     0.9044 H       
  24 H24           -2.8222    -2.8800    -0.8754 H       
  25 H25           -0.3809    -9.1542    -0.4209 H       
  26 H26           -0.9031    -7.3322     3.2778 H       
  27 H27           -1.7199    -4.6668     2.1145 H       
  28 H28           -1.7609    -4.6474    -2.1407 H       
  29 H29           -1.0517    -6.9959    -2.1960 H       
  30 H30            0.9464    -9.9283     2.4476 H       
  31 H31           -0.6421    -9.9783     3.2491 H       
  32 H32           -0.4166   -10.7688     1.6703 H       
@<TRIPOS>BOND
   1    1    2 1
   2    1    5 1
   3    2    3 2
   4    2    6 1
   5    3    4 1
   6    4    5 2
   7    4   20 1
   8    5   21 1
   9    6    7 2
  10    6    8 am
  11    8    9 1
  12    8   22 1
  13    9   15 1
  14    9   23 1
  15    9   24 1
  16   10   11 1
  17   10   18 1
  18   10   25 1
  19   11   12 2
  20   11   19 1
  21   12   13 1
  22   12   26 1
  23   13   14 ar
  24   13   18 ar
  25   14   15 ar
  26   14   27 1
  27   15   16 ar
  28   16   17 ar
  29   16   28 1
  30   17   18 ar
  31   17   29 1
  32   19   30 1
  33   19   31 1
  34   19   32 1

#	End of record

