#	Name: ASD02038553
#	Creating user name:	WinNT
#	Creation time:	15. 06. 2019 20:16

#	Modifying user name:	WinNT
#	Modification time:	15. 06. 2019 20:16

#	Program:	/corina/corina34_cracker 3.40 0067  02.08.2006

@<TRIPOS>MOLECULE
ASD02038553
  59   62    0    0    0
SMALL
NO_CHARGES


@<TRIPOS>ATOM
   1 C1            -0.0172     1.4641    -0.0077 C.3     
   2 N2             0.0026    -0.0052     0.0023 N.3     
   3 C3            -1.3592    -0.5495     0.0884 C.3     
   4 C4             0.7049    -0.5277    -1.1781 C.3     
   5 C5             2.1419    -0.0009    -1.1881 C.3     
   6 N6             2.1221     1.4685    -1.1981 N.3     
   7 C7             3.4168     1.9860    -1.2799 C.ar    
   8 C8             3.6170     3.3604    -1.3024 C.ar    
   9 C9             4.8986     3.8688    -1.3829 C.ar    
  10 C10            5.9819     3.0112    -1.4410 C.ar    
  11 C11            5.7861     1.6424    -1.4188 C.ar    
  12 C12            4.5076     1.1275    -1.3331 C.ar    
  13 C13            1.4197     1.9910    -0.0177 C.3     
  14 C14           -1.8792    -0.3986     1.5193 C.3     
  15 C15           -3.3393    -0.8515     1.5817 C.3     
  16 O16           -3.8599    -0.6022     2.8890 O.3     
  17 O17           -1.0927    -1.2041     2.3994 O.3     
  18 C18           -5.1551    -0.9495     3.1142 C.ar    
  19 C19           -5.7211    -0.7345     4.3604 C.ar    
  20 C20           -5.9082    -1.5135     2.0930 C.ar    
  21 C21           -7.2240    -1.8680     2.3166 C.ar    
  22 C22           -7.7931    -1.6601     3.5632 C.ar    
  23 C23           -7.0413    -1.0887     4.5894 C.ar    
  24 N24           -9.0636    -1.9051     4.0890 N.am    
  25 C25           -9.0548    -1.4986     5.3739 C.2     
  26 O26           -7.8436    -1.0070     5.6791 O.3     
  27 O27           -9.9991    -1.5630     6.1373 O.2     
  28 C28            7.3788     3.5695    -1.5293 C.3     
  29 C29            8.1935     3.0985    -0.3229 C.3     
  30 C30            8.0439     3.0786    -2.8168 C.3     
  31 H31           -0.5393     1.8147    -0.8980 H       
  32 H32           -0.5314     1.8270     0.8823 H       
  33 H33           -2.0117    -0.0055    -0.5946 H       
  34 H34           -1.3466    -1.6048    -0.1843 H       
  35 H35            0.7172    -1.6170    -1.1414 H       
  36 H36            0.1911    -0.1997    -2.0817 H       
  37 H37            2.6639    -0.3515    -0.2978 H       
  38 H38            2.6560    -0.3637    -2.0781 H       
  39 H39            2.7714     4.0307    -1.2574 H       
  40 H40            5.0549     4.9372    -1.4008 H       
  41 H41            6.6343     0.9755    -1.4644 H       
  42 H42            4.3554     0.0584    -1.3155 H       
  43 H43            1.4074     3.0803    -0.0544 H       
  44 H44            1.9336     1.6630     0.8859 H       
  45 H45           -1.8095     0.6459     1.8230 H       
  46 H46           -3.9232    -0.2977     0.8465 H       
  47 H47           -3.3986    -1.9179     1.3643 H       
  48 H48           -1.1081    -2.1477     2.1882 H       
  49 H49           -5.1346    -0.2920     5.1519 H       
  50 H50           -5.4641    -1.6749     1.1218 H       
  51 H51           -7.8087    -2.3063     1.5214 H       
  52 H52           -9.8147    -2.2962     3.6160 H       
  53 H53            7.3351     4.6586    -1.5354 H       
  54 H54            8.2372     2.0094    -0.3168 H       
  55 H55            9.2039     3.5024    -0.3867 H       
  56 H56            7.7197     3.4483     0.5944 H       
  57 H57            9.0543     3.4824    -2.8806 H       
  58 H58            8.0876     1.9895    -2.8107 H       
  59 H59            7.4635     3.4141    -3.6763 H       
@<TRIPOS>BOND
   1    1    2 1
   2    1   13 1
   3    1   31 1
   4    1   32 1
   5    2    3 1
   6    2    4 1
   7    3   14 1
   8    3   33 1
   9    3   34 1
  10    4    5 1
  11    4   35 1
  12    4   36 1
  13    5    6 1
  14    5   37 1
  15    5   38 1
  16    6    7 1
  17    6   13 1
  18    7    8 ar
  19    7   12 ar
  20    8    9 ar
  21    8   39 1
  22    9   10 ar
  23    9   40 1
  24   10   11 ar
  25   10   28 1
  26   11   12 ar
  27   11   41 1
  28   12   42 1
  29   13   43 1
  30   13   44 1
  31   14   15 1
  32   14   17 1
  33   14   45 1
  34   15   16 1
  35   15   46 1
  36   15   47 1
  37   16   18 1
  38   17   48 1
  39   18   19 ar
  40   18   20 ar
  41   19   23 ar
  42   19   49 1
  43   20   21 ar
  44   20   50 1
  45   21   22 ar
  46   21   51 1
  47   22   23 ar
  48   22   24 1
  49   23   26 1
  50   24   25 am
  51   24   52 1
  52   25   26 1
  53   25   27 2
  54   28   29 1
  55   28   30 1
  56   28   53 1
  57   29   54 1
  58   29   55 1
  59   29   56 1
  60   30   57 1
  61   30   58 1
  62   30   59 1

#	End of record

