#	Name: ASD01913212
#	Creating user name:	WinNT
#	Creation time:	15. 06. 2019 20:01

#	Modifying user name:	WinNT
#	Modification time:	15. 06. 2019 20:01

#	Program:	/corina/corina34_cracker 3.40 0067  02.08.2006

@<TRIPOS>MOLECULE
ASD01913212
  50   53    0    0    0
SMALL
NO_CHARGES


@<TRIPOS>ATOM
   1 N1             1.0533     0.8325     2.1857 N.ar    
   2 C2             1.4413    -0.3258     2.6734 C.ar    
   3 C3             2.7722    -0.6971     2.6282 C.ar    
   4 C4             3.6904     0.1726     2.0665 C.ar    
   5 C5             3.2424     1.3908     1.5622 C.ar    
   6 C6             4.2631     2.3247     0.9707 C.3     
   7 C7             3.5960     3.3466     0.0508 C.3     
   8 N8             2.4282     3.8974     0.7580 N.am    
   9 C9             1.3349     2.9736     1.0778 C.3     
  10 C10            1.9009     1.6893     1.6322 C.ar    
  11 C11            3.2157    -2.0267     3.1818 C.3     
  12 F12            2.1077    -2.7136     3.6893 F       
  13 F13            3.8065    -2.7823     2.1634 F       
  14 F14            4.1448    -1.8185     4.2069 F       
  15 C15            2.3660     5.2001     1.0981 C.2     
  16 O16            3.3283     5.9216     0.9196 O.2     
  17 C17            1.1295     5.7511     1.6872 C.ar    
  18 C18            1.2043     6.7467     2.6603 C.ar    
  19 C19            0.0341     7.2627     3.2126 C.ar    
  20 C20           -1.2122     6.7758     2.7848 C.ar    
  21 C21           -1.2744     5.7848     1.8158 C.ar    
  22 C22           -0.1171     5.2784     1.2652 C.ar    
  23 C23            0.1014     8.2851     4.2129 C.1     
  24 C24            0.1565     9.1234     5.0330 C.1     
  25 C25            0.2239    10.1458     6.0334 C.ar    
  26 C26           -0.9550    10.6581     6.5824 C.ar    
  27 C27           -0.8724    11.6447     7.5476 C.ar    
  28 C28            0.3845    12.0901     7.9356 C.ar    
  29 C29            1.5107    11.5401     7.3516 C.ar    
  30 N30            1.4076    10.5973     6.4373 N.ar    
  31 O31           -2.3546     7.2741     3.3193 O.3     
  32 C32           -3.5862     6.7329     2.8376 C.3     
  33 H33            0.7142    -0.9923     3.1132 H       
  34 H34            4.7372    -0.0890     2.0204 H       
  35 H35            4.7783     2.8491     1.7754 H       
  36 H36            4.9886     1.7467     0.3982 H       
  37 H37            4.2981     4.1474    -0.1813 H       
  38 H38            3.2739     2.8595    -0.8695 H       
  39 H39            0.6790     3.4305     1.8189 H       
  40 H40            0.7653     2.7588     0.1735 H       
  41 H41            2.1658     7.1163     2.9849 H       
  42 H42           -2.2338     5.4119     1.4888 H       
  43 H43           -0.1730     4.5105     0.5078 H       
  44 H44           -1.9164    10.2890     6.2572 H       
  45 H45           -1.7658    12.0601     7.9899 H       
  46 H46            0.4815    12.8599     8.6869 H       
  47 H47            2.4888    11.8856     7.6519 H       
  48 H48           -3.6646     6.9072     1.7645 H       
  49 H49           -3.6139     5.6612     3.0346 H       
  50 H50           -4.4197     7.2174     3.3462 H       
@<TRIPOS>BOND
   1    1    2 ar
   2    1   10 ar
   3    2    3 ar
   4    2   33 1
   5    3    4 ar
   6    3   11 1
   7    4    5 ar
   8    4   34 1
   9    5    6 1
  10    5   10 ar
  11    6    7 1
  12    6   35 1
  13    6   36 1
  14    7    8 1
  15    7   37 1
  16    7   38 1
  17    8    9 1
  18    8   15 am
  19    9   10 1
  20    9   39 1
  21    9   40 1
  22   11   12 1
  23   11   13 1
  24   11   14 1
  25   15   16 2
  26   15   17 1
  27   17   18 ar
  28   17   22 ar
  29   18   19 ar
  30   18   41 1
  31   19   20 ar
  32   19   23 1
  33   20   21 ar
  34   20   31 1
  35   21   22 ar
  36   21   42 1
  37   22   43 1
  38   23   24 3
  39   24   25 1
  40   25   26 ar
  41   25   30 ar
  42   26   27 ar
  43   26   44 1
  44   27   28 ar
  45   27   45 1
  46   28   29 ar
  47   28   46 1
  48   29   30 ar
  49   29   47 1
  50   31   32 1
  51   32   48 1
  52   32   49 1
  53   32   50 1

#	End of record

