#	Name: ASD01900447
#	Creating user name:	WinNT
#	Creation time:	15. 06. 2019 19:51

#	Modifying user name:	WinNT
#	Modification time:	15. 06. 2019 19:51

#	Program:	/corina/corina34_cracker 3.40 0067  02.08.2006

@<TRIPOS>MOLECULE
ASD01900447
  26   28    0    0    0
SMALL
NO_CHARGES


@<TRIPOS>ATOM
   1 C1            -0.0263     1.3950     0.1270 C.ar    
   2 C2             0.0065     0.0002    -0.0625 C.ar    
   3 C3             1.2234    -0.6704     0.0543 C.ar    
   4 C4             2.3509     0.0690     0.3530 C.ar    
   5 C5             2.2451     1.4428     0.5269 C.ar    
   6 N6             1.0909     2.0595     0.4130 N.ar    
   7 N7            -2.1141     0.7220    -0.3279 N.2     
   8 N8            -1.2750    -0.3970    -0.3395 N.pl3   
   9 C9            -1.4235     1.7964    -0.0522 C.2     
  10 N10           -1.9266     3.0975     0.0450 N.pl3   
  11 C11           -3.3037     3.3227    -0.0405 C.ar    
  12 C12           -4.1955     2.3414     0.3729 C.ar    
  13 C13           -5.5579     2.5658     0.2882 C.ar    
  14 C14           -6.0332     3.7692    -0.2093 C.ar    
  15 C15           -5.1443     4.7495    -0.6223 C.ar    
  16 C16           -3.7814     4.5301    -0.5334 C.ar    
  17 F17           -5.6093     5.9217    -1.1069 F       
  18 F18           -7.3640     3.9866    -0.2923 F       
  19 F19           -6.4256     1.6115     0.6902 F       
  20 H20            1.2826    -1.7398    -0.0847 H       
  21 H21            3.3096    -0.4185     0.4511 H       
  22 H22            3.1301     2.0159     0.7607 H       
  23 H23           -1.5556    -1.3086    -0.5156 H       
  24 H24           -1.3201     3.8438     0.1717 H       
  25 H25           -3.8255     1.4035     0.7599 H       
  26 H26           -3.0891     5.2958    -0.8510 H       
@<TRIPOS>BOND
   1    1    2 ar
   2    1    6 ar
   3    1    9 1
   4    2    3 ar
   5    2    8 1
   6    3    4 ar
   7    3   20 1
   8    4    5 ar
   9    4   21 1
  10    5    6 ar
  11    5   22 1
  12    7    8 1
  13    7    9 2
  14    8   23 1
  15    9   10 1
  16   10   11 1
  17   10   24 1
  18   11   12 ar
  19   11   16 ar
  20   12   13 ar
  21   12   25 1
  22   13   14 ar
  23   13   19 1
  24   14   15 ar
  25   14   18 1
  26   15   16 ar
  27   15   17 1
  28   16   26 1

#	End of record

