#	Name: ASD01230551
#	Creating user name:	WinNT
#	Creation time:	15. 06. 2019 19:14

#	Modifying user name:	WinNT
#	Modification time:	15. 06. 2019 19:14

#	Program:	/corina/corina34_cracker 3.40 0067  02.08.2006

@<TRIPOS>MOLECULE
ASD01230551
  20   20    0    0    0
SMALL
NO_CHARGES


@<TRIPOS>ATOM
   1 C1            -0.0961     1.2331    -0.0238 C.2     
   2 C2             0.1214    -0.0910     0.3621 C.2     
   3 C3             1.5029    -0.6123     0.3543 C.2     
   4 C4             2.5265     0.2339     0.3028 C.2     
   5 C5             2.2830     1.7205     0.2625 C.3     
   6 N6             0.9933     1.9874    -0.3848 N.pl3   
   7 C7            -0.9597    -0.9161     0.7530 C.2     
   8 O8            -2.0781    -0.4450     0.8596 O.2     
   9 N9            -0.7521    -2.2233     1.0074 N.am    
  10 O10            0.8740     3.0043    -1.3630 O.3     
  11 N11           -1.3574     1.7616    -0.0470 N.pl3   
  12 H12            1.6809    -1.6769     0.3906 H       
  13 H13            3.5376    -0.1457     0.2902 H       
  14 H14            2.2680     2.1139     1.2789 H       
  15 H15            3.0799     2.2041    -0.3025 H       
  16 H16            0.1384    -2.5984     0.9226 H       
  17 H17           -1.4931    -2.7889     1.2754 H       
  18 H18           -0.0174     3.0984    -1.7259 H       
  19 H19           -2.1270     1.1766    -0.1270 H       
  20 H20           -1.4823     2.7215     0.0165 H       
@<TRIPOS>BOND
   1    1    2 2
   2    1    6 1
   3    1   11 1
   4    2    3 1
   5    2    7 1
   6    3    4 2
   7    3   12 1
   8    4    5 1
   9    4   13 1
  10    5    6 1
  11    5   14 1
  12    5   15 1
  13    6   10 1
  14    7    8 2
  15    7    9 am
  16    9   16 1
  17    9   17 1
  18   10   18 1
  19   11   19 1
  20   11   20 1

#	End of record

