#	Name: ASD02560404
#	Creating user name:	WinNT
#	Creation time:	15. 06. 2019 20:25

#	Modifying user name:	WinNT
#	Modification time:	15. 06. 2019 20:25

#	Program:	/corina/corina34_cracker 3.40 0067  02.08.2006

@<TRIPOS>MOLECULE
ASD02560404
  43   46    0    0    0
SMALL
NO_CHARGES


@<TRIPOS>ATOM
   1 C1             0.1363     1.3874     1.1118 C.2     
   2 C2             0.1571    -0.0185     1.0971 C.2     
   3 C3             1.2856    -0.6796     0.7701 C.2     
   4 N4             2.4263     0.0057     0.4480 N.pl3   
   5 C5             2.4359     1.3819     0.4534 C.2     
   6 C6             1.2603     2.0834     0.7941 C.2     
   7 C7             3.6783    -0.4093     0.0877 C.2     
   8 C8             4.4317     0.7292    -0.1210 C.2     
   9 N9             3.6447     1.7969     0.1102 N.2     
  10 C10            5.8516     0.7687    -0.5267 C.2     
  11 N11            4.1117    -1.7297    -0.0440 N.3     
  12 C12            2.9880    -2.6675     0.0809 C.3     
  13 C13            3.3283    -3.9708    -0.6448 C.3     
  14 C14            6.5736     1.8900    -0.7266 C.2     
  15 C15            2.7298    -2.9600     1.5603 C.3     
  16 C16            1.5594    -3.9368     1.6904 C.3     
  17 C17            1.8997    -5.2400     0.9648 C.3     
  18 C18            2.1579    -4.9476    -0.5147 C.3     
  19 C19            7.8847     1.6719    -1.1018 C.2     
  20 C20            8.2363     0.3885    -1.2092 C.2     
  21 S21            6.8647    -0.6396    -0.8166 S.3     
  22 C22            5.9957     3.2711    -0.5546 C.3     
  23 H23           -0.7711     1.9129     1.3703 H       
  24 H24           -0.7355    -0.5716     1.3494 H       
  25 H25            1.2900    -1.7596     0.7625 H       
  26 H26            1.2530     3.1633     0.8021 H       
  27 H27            4.6001    -1.8647    -0.9165 H       
  28 H28            2.0956    -2.2266    -0.3634 H       
  29 H29            3.5122    -3.7624    -1.6987 H       
  30 H30            4.2206    -4.4117    -0.2004 H       
  31 H31            3.6221    -3.4009     2.0047 H       
  32 H32            2.4874    -2.0315     2.0773 H       
  33 H33            1.3755    -4.1451     2.7444 H       
  34 H34            0.6671    -3.4958     1.2461 H       
  35 H35            2.7920    -5.6809     1.4091 H       
  36 H36            1.0659    -5.9359     1.0574 H       
  37 H37            1.2656    -4.5066    -0.9590 H       
  38 H38            2.4003    -5.8760    -1.0317 H       
  39 H39            8.5746     2.4801    -1.2946 H       
  40 H40            9.2170     0.0348    -1.4909 H       
  41 H41            6.1380     3.5989     0.4752 H       
  42 H42            6.5004     3.9628    -1.2291 H       
  43 H43            4.9306     3.2507    -0.7855 H       
@<TRIPOS>BOND
   1    1    2 1
   2    1    6 2
   3    1   23 1
   4    2    3 2
   5    2   24 1
   6    3    4 1
   7    3   25 1
   8    4    5 1
   9    4    7 1
  10    5    6 1
  11    5    9 2
  12    6   26 1
  13    7    8 2
  14    7   11 1
  15    8    9 1
  16    8   10 1
  17   10   14 2
  18   10   21 1
  19   11   12 1
  20   11   27 1
  21   12   13 1
  22   12   15 1
  23   12   28 1
  24   13   18 1
  25   13   29 1
  26   13   30 1
  27   14   19 1
  28   14   22 1
  29   15   16 1
  30   15   31 1
  31   15   32 1
  32   16   17 1
  33   16   33 1
  34   16   34 1
  35   17   18 1
  36   17   35 1
  37   17   36 1
  38   18   37 1
  39   18   38 1
  40   19   20 2
  41   19   39 1
  42   20   21 1
  43   20   40 1
  44   22   41 1
  45   22   42 1
  46   22   43 1

#	End of record

