#	Name: ASD03731000
#	Creating user name:	WinNT
#	Creation time:	15. 06. 2019 20:45

#	Modifying user name:	WinNT
#	Modification time:	15. 06. 2019 20:45

#	Program:	/corina/corina34_cracker 3.40 0067  02.08.2006

@<TRIPOS>MOLECULE
ASD03731000
  55   61    0    0    0
SMALL
NO_CHARGES


@<TRIPOS>ATOM
   1 O1             0.1296     1.8627    -1.9455 O.3     
   2 C2             0.1588     0.4672    -2.2990 C.3     
   3 O3             1.4769     0.2802    -2.8471 O.3     
   4 C4             2.2578     1.2304    -2.2536 C.ar    
   5 C5             1.4289     2.2037    -1.7004 C.ar    
   6 C6             3.6316     1.3448    -2.1383 C.ar    
   7 C7             4.1953     2.4294    -1.4730 C.ar    
   8 C8             3.3573     3.3995    -0.9317 C.ar    
   9 C9             1.9870     3.2850    -1.0396 C.ar    
  10 O10            5.5062     2.7203    -1.2349 O.3     
  11 C11            4.2508     4.4410    -0.3130 C.3     
  12 C12            5.6302     4.1166    -0.9025 C.3     
  13 N13            3.5943     6.4637     0.5249 N.am    
  14 C14            3.8129     5.8376    -0.6486 C.2     
  15 C15            4.2526     4.3740     1.1855 C.ar    
  16 C16            4.5566     3.3839     2.0930 C.ar    
  17 C17            4.4596     3.6345     3.4501 C.ar    
  18 C18            4.0568     4.8813     3.8927 C.ar    
  19 C19            3.7504     5.8761     2.9877 C.ar    
  20 C20            3.8454     5.6329     1.6196 C.ar    
  21 O21            3.6820     6.3098    -1.7581 O.2     
  22 C22            3.1463     7.8538     0.6391 C.3     
  23 C23            0.9725     9.1126     0.7217 C.ar    
  24 C24            1.6428     7.8909     0.7340 C.ar    
  25 C25            0.9272     6.7151     0.8328 C.ar    
  26 C26           -0.4532     6.7477     0.9195 C.ar    
  27 C27           -1.1235     7.9573     0.9077 C.ar    
  28 C28           -0.4177     9.1395     0.8093 C.ar    
  29 C29            1.7370    10.3805     0.6218 C.ar    
  30 C30            1.4585    11.2863    -0.3997 C.ar    
  31 C31            2.1728    12.4640    -0.4878 C.ar    
  32 C32            3.1637    12.7457     0.4352 C.ar    
  33 C33            3.4445    11.8498     1.4511 C.ar    
  34 C34            2.7320    10.6722     1.5526 C.ar    
  35 H35            0.0200    -0.1548    -1.4147 H       
  36 H36           -0.6021     0.2457    -3.0474 H       
  37 H37            4.2708     0.5873    -2.5671 H       
  38 H38            1.3476     4.0410    -0.6081 H       
  39 H39            6.4140     4.2699    -0.1607 H       
  40 H40            5.8192     4.7119    -1.7958 H       
  41 H41            4.8706     2.4109     1.7451 H       
  42 H42            4.6976     2.8582     4.1623 H       
  43 H43            3.9814     5.0770     4.9521 H       
  44 H44            3.4357     6.8469     3.3411 H       
  45 H45            3.5780     8.3023     1.5339 H       
  46 H46            3.4689     8.4128    -0.2393 H       
  47 H47            1.4456     5.7677     0.8421 H       
  48 H48           -1.0093     5.8251     0.9963 H       
  49 H49           -2.2012     7.9770     0.9757 H       
  50 H50           -0.9422    10.0836     0.8005 H       
  51 H51            0.6855    11.0670    -1.1213 H       
  52 H52            1.9578    13.1668    -1.2792 H       
  53 H53            3.7204    13.6683     0.3623 H       
  54 H54            4.2195    12.0746     2.1689 H       
  55 H55            2.9486     9.9758     2.3492 H       
@<TRIPOS>BOND
   1    1    2 1
   2    1    5 1
   3    2    3 1
   4    2   35 1
   5    2   36 1
   6    3    4 1
   7    4    5 ar
   8    4    6 ar
   9    5    9 ar
  10    6    7 ar
  11    6   37 1
  12    7    8 ar
  13    7   10 1
  14    8    9 ar
  15    8   11 1
  16    9   38 1
  17   10   12 1
  18   11   12 1
  19   11   14 1
  20   11   15 1
  21   12   39 1
  22   12   40 1
  23   13   14 am
  24   13   20 1
  25   13   22 1
  26   14   21 2
  27   15   16 ar
  28   15   20 ar
  29   16   17 ar
  30   16   41 1
  31   17   18 ar
  32   17   42 1
  33   18   19 ar
  34   18   43 1
  35   19   20 ar
  36   19   44 1
  37   22   24 1
  38   22   45 1
  39   22   46 1
  40   23   24 ar
  41   23   28 ar
  42   23   29 1
  43   24   25 ar
  44   25   26 ar
  45   25   47 1
  46   26   27 ar
  47   26   48 1
  48   27   28 ar
  49   27   49 1
  50   28   50 1
  51   29   30 ar
  52   29   34 ar
  53   30   31 ar
  54   30   51 1
  55   31   32 ar
  56   31   52 1
  57   32   33 ar
  58   32   53 1
  59   33   34 ar
  60   33   54 1
  61   34   55 1

#	End of record

