#	Name: ASD08710055
#	Creating user name:	WinNT
#	Creation time:	15. 06. 2019 21:19

#	Modifying user name:	WinNT
#	Modification time:	15. 06. 2019 21:19

#	Program:	/corina/corina34_cracker 3.40 0067  02.08.2006

@<TRIPOS>MOLECULE
ASD08710055
  56   58    0    0    0
SMALL
NO_CHARGES


@<TRIPOS>ATOM
   1 C1             0.3675     2.6345     0.6811 C.ar    
   2 C2             0.6880     1.3039     0.8526 C.ar    
   3 C3            -0.4320     3.0236    -0.3957 C.ar    
   4 C4            -0.9015     2.0615    -1.2919 C.ar    
   5 C5            -0.5732     0.7341    -1.1085 C.ar    
   6 C6             0.2192     0.3556    -0.0395 C.ar    
   7 S7             0.6341    -1.3419     0.1868 S.o2    
   8 O8             1.5046    -1.3961     1.3086 O.2     
   9 O9            -0.5863    -2.0663     0.1142 O.2     
  10 N10            1.5321    -1.8061    -1.1249 N.am    
  11 C11            2.9771    -1.5425    -1.1732 C.3     
  12 C12            0.8994    -2.4946    -2.2587 C.3     
  13 C13            1.6359    -3.8179    -2.5013 C.3     
  14 N14            3.0798    -3.5492    -2.5522 N.am    
  15 C15            3.7091    -2.8678    -1.4181 C.3     
  16 C16            3.8109    -3.9279    -3.6192 C.2     
  17 C17            5.2794    -3.7580    -3.6071 C.ar    
  18 O18            3.2628    -4.4090    -4.5916 O.2     
  19 C19            5.9484    -3.2849    -4.7368 C.ar    
  20 N20            7.2563    -3.1336    -4.7261 N.ar    
  21 C21            7.9821    -3.4182    -3.6614 C.ar    
  22 C22            7.3944    -3.8918    -2.5024 C.ar    
  23 C23            6.0218    -4.0635    -2.4602 C.ar    
  24 C24            1.3343    -4.7903    -1.3592 C.3     
  25 C25           -1.0794    -0.3059    -2.0745 C.3     
  26 C26           -0.7691     4.4032    -0.5796 C.1     
  27 N27           -1.0365     5.4976    -0.7255 N.1     
  28 C28            9.4758    -3.2244    -3.7093 C.3     
  29 C29            9.8305    -1.8504    -3.1373 C.3     
  30 C30           10.1583    -4.3139    -2.8797 C.3     
  31 H31            0.7303     3.3730     1.3806 H       
  32 H32            1.3065     1.0016     1.6847 H       
  33 H33           -1.5205     2.3557    -2.1266 H       
  34 H34            3.1954    -0.8485    -1.9849 H       
  35 H35            3.3028    -1.1144    -0.2251 H       
  36 H36           -0.1467    -2.6952    -2.0274 H       
  37 H37            0.9664    -1.8700    -3.1495 H       
  38 H38            1.3105    -4.2494    -3.4480 H       
  39 H39            4.7553    -2.6654    -1.6477 H       
  40 H40            3.6418    -3.4965    -0.5303 H       
  41 H41            5.3886    -3.0412    -5.6276 H       
  42 H42            7.9999    -4.1213    -1.6381 H       
  43 H43            5.5368    -4.4317    -1.5683 H       
  44 H44            0.2612    -4.9761    -1.3140 H       
  45 H45            1.8587    -5.7297    -1.5339 H       
  46 H46            1.6682    -4.3577    -0.4161 H       
  47 H47           -0.3726    -0.4120    -2.8975 H       
  48 H48           -1.1828    -1.2608    -1.5590 H       
  49 H49           -2.0489     0.0027    -2.4656 H       
  50 H50            9.8174    -3.2870    -4.7425 H       
  51 H51            9.4889    -1.7879    -2.1040 H       
  52 H52           10.9109    -1.7103    -3.1719 H       
  53 H53            9.3443    -1.0743    -3.7283 H       
  54 H54            9.9056    -5.2928    -3.2873 H       
  55 H55           11.2387    -4.1737    -2.9143 H       
  56 H56            9.8167    -4.2513    -1.8465 H       
@<TRIPOS>BOND
   1    1    2 ar
   2    1    3 ar
   3    1   31 1
   4    2    6 ar
   5    2   32 1
   6    3    4 ar
   7    3   26 1
   8    4    5 ar
   9    4   33 1
  10    5    6 ar
  11    5   25 1
  12    6    7 1
  13    7    8 2
  14    7    9 2
  15    7   10 am
  16   10   11 1
  17   10   12 1
  18   11   15 1
  19   11   34 1
  20   11   35 1
  21   12   13 1
  22   12   36 1
  23   12   37 1
  24   13   14 1
  25   13   24 1
  26   13   38 1
  27   14   15 1
  28   14   16 am
  29   15   39 1
  30   15   40 1
  31   16   17 1
  32   16   18 2
  33   17   19 ar
  34   17   23 ar
  35   19   20 ar
  36   19   41 1
  37   20   21 ar
  38   21   22 ar
  39   21   28 1
  40   22   23 ar
  41   22   42 1
  42   23   43 1
  43   24   44 1
  44   24   45 1
  45   24   46 1
  46   25   47 1
  47   25   48 1
  48   25   49 1
  49   26   27 3
  50   28   29 1
  51   28   30 1
  52   28   50 1
  53   29   51 1
  54   29   52 1
  55   29   53 1
  56   30   54 1
  57   30   55 1
  58   30   56 1

#	End of record

