#	Name: ASD01884731
#	Creating user name:	WinNT
#	Creation time:	15. 06. 2019 19:48

#	Modifying user name:	WinNT
#	Modification time:	15. 06. 2019 19:48

#	Program:	/corina/corina34_cracker 3.40 0067  02.08.2006

@<TRIPOS>MOLECULE
ASD01884731
  47   49    0    0    0
SMALL
NO_CHARGES


@<TRIPOS>ATOM
   1 C1             0.2269     1.3110    -0.2398 C.2     
   2 C2             0.1735    -0.0775    -0.1999 C.2     
   3 C3            -1.0817    -0.7047    -0.0866 C.2     
   4 C4            -2.2265     0.0634    -0.0178 C.2     
   5 N5            -2.1618     1.4098    -0.0575 N.am    
   6 C6            -0.9826     2.0498    -0.1598 C.2     
   7 O7            -0.9536     3.2680    -0.1929 O.2     
   8 C8            -3.3988     2.1909     0.0177 C.3     
   9 C9             1.4843     1.9864    -0.3541 C.1     
  10 N10            2.4819     2.5223    -0.4447 N.1     
  11 C11           -3.7188     2.4999     1.4816 C.3     
  12 C12           -5.0107     3.3157     1.5601 C.3     
  13 C13           -6.1813     2.4665     1.0605 C.3     
  14 C14           -5.2644     3.7309     3.0107 C.3     
  15 C15           -1.1734    -2.1805    -0.0420 C.2     
  16 S16           -2.0313    -3.1994    -1.1963 S.3     
  17 C17           -1.5417    -4.6297    -0.2922 C.2     
  18 N18           -0.8243    -4.2654     0.7325 N.2     
  19 C19           -0.6093    -2.9825     0.8874 C.2     
  20 C20            0.2044    -2.4367     2.0324 C.3     
  21 C21           -1.8901    -6.0229    -0.6408 C.ar    
  22 C22           -1.4418    -7.0779     0.1559 C.ar    
  23 C23           -1.7706    -8.3761    -0.1752 C.ar    
  24 C24           -2.5425    -8.6337    -1.2942 C.ar    
  25 C25           -2.9897    -7.5927    -2.0884 C.ar    
  26 C26           -2.6737    -6.2893    -1.7649 C.ar    
  27 H27            1.0784    -0.6643    -0.2552 H       
  28 H28           -3.1879    -0.4209     0.0688 H       
  29 H29           -3.2733     3.1240    -0.5316 H       
  30 H30           -4.2169     1.6189    -0.4201 H       
  31 H31           -3.8443     1.5668     2.0309 H       
  32 H32           -2.9007     3.0720     1.9194 H       
  33 H33           -4.9165     4.2061     0.9385 H       
  34 H34           -6.2755     1.5761     1.6821 H       
  35 H35           -7.1017     3.0477     1.1164 H       
  36 H36           -6.0005     2.1707     0.0271 H       
  37 H37           -4.4305     4.3359     3.3666 H       
  38 H38           -6.1849     4.3121     3.0666 H       
  39 H39           -5.3586     2.8405     3.6323 H       
  40 H40            1.2552    -2.3979     1.7454 H       
  41 H41           -0.1423    -1.4330     2.2785 H       
  42 H42            0.0888    -3.0843     2.9015 H       
  43 H43           -0.8386    -6.8783     1.0293 H       
  44 H44           -1.4244    -9.1933     0.4403 H       
  45 H45           -2.7967    -9.6519    -1.5492 H       
  46 H46           -3.5915    -7.8006    -2.9607 H       
  47 H47           -3.0237    -5.4776    -2.3855 H       
@<TRIPOS>BOND
   1    1    2 2
   2    1    9 1
   3    1    6 1
   4    2    3 1
   5    2   27 1
   6    3    4 2
   7    3   15 1
   8    4    5 1
   9    4   28 1
  10    5    8 1
  11    5    6 am
  12    6    7 2
  13    8   11 1
  14    8   29 1
  15    8   30 1
  16    9   10 3
  17   11   12 1
  18   11   31 1
  19   11   32 1
  20   12   13 1
  21   12   14 1
  22   12   33 1
  23   13   34 1
  24   13   35 1
  25   13   36 1
  26   14   37 1
  27   14   38 1
  28   14   39 1
  29   15   16 1
  30   15   19 2
  31   16   17 1
  32   17   18 2
  33   17   21 1
  34   18   19 1
  35   19   20 1
  36   20   40 1
  37   20   41 1
  38   20   42 1
  39   21   22 ar
  40   21   26 ar
  41   22   23 ar
  42   22   43 1
  43   23   24 ar
  44   23   44 1
  45   24   25 ar
  46   24   45 1
  47   25   26 ar
  48   25   46 1
  49   26   47 1

#	End of record

