#	Name: ASD03950105
#	Creating user name:	WinNT
#	Creation time:	15. 06. 2019 20:48

#	Modifying user name:	WinNT
#	Modification time:	15. 06. 2019 20:48

#	Program:	/corina/corina34_cracker 3.40 0067  02.08.2006

@<TRIPOS>MOLECULE
ASD03950105
  34   36    0    0    0
SMALL
NO_CHARGES


@<TRIPOS>ATOM
   1 N1            -0.0169     1.3944     0.0097 N.pl3   
   2 N2             0.0021    -0.0041     0.0020 N.2     
   3 C3             1.2314    -0.4337    -0.0120 C.2     
   4 C4             2.1092     0.7333    -0.0141 C.ar    
   5 C5             3.4980     0.9019    -0.0268 C.ar    
   6 C6             4.0380     2.1690    -0.0256 C.ar    
   7 C7             3.2185     3.2867    -0.0114 C.ar    
   8 C8             1.8341     3.1469     0.0015 C.ar    
   9 C9             1.2667     1.8601    -0.0000 C.ar    
  10 C10            0.9675     4.3404     0.0161 C.2     
  11 O11           -0.2418     4.2136     0.0273 O.2     
  12 N12            1.5160     5.5715     0.0171 N.am    
  13 N13            0.9750    -4.6786    -0.0274 N.3     
  14 C14            1.5350    -4.0589     1.1804 C.3     
  15 C15            1.1391    -2.5814     1.2277 C.3     
  16 C16            1.6693    -1.8756    -0.0235 C.3     
  17 C17            1.1095    -2.5705    -1.2678 C.3     
  18 C18            1.5062    -4.0483    -1.2427 C.3     
  19 Br19           5.9164     2.3859    -0.0429 Br      
  20 H20           -0.8149     1.9457     0.0166 H       
  21 H21            4.1468     0.0385    -0.0373 H       
  22 H22            3.6577     4.2734    -0.0099 H       
  23 H23            2.4807     5.6727     0.0081 H       
  24 H24            0.9461     6.3564     0.0267 H       
  25 H25            1.1416    -5.6737    -0.0337 H       
  26 H26            1.1468    -4.5673     2.0629 H       
  27 H27            2.6216    -4.1433     1.1614 H       
  28 H28            0.0529    -2.4965     1.2606 H       
  29 H29            1.5680    -2.1180     2.1162 H       
  30 H30            2.7581    -1.9256    -0.0361 H       
  31 H31            0.0228    -2.4855    -1.2741 H       
  32 H32            1.5171    -2.0994    -2.1621 H       
  33 H33            2.5929    -4.1328    -1.2503 H       
  34 H34            1.0970    -4.5492    -2.1201 H       
@<TRIPOS>BOND
   1    1    2 1
   2    1    9 1
   3    1   20 1
   4    2    3 2
   5    3    4 1
   6    3   16 1
   7    4    5 ar
   8    4    9 ar
   9    5    6 ar
  10    5   21 1
  11    6    7 ar
  12    6   19 1
  13    7    8 ar
  14    7   22 1
  15    8    9 ar
  16    8   10 1
  17   10   11 2
  18   10   12 am
  19   12   23 1
  20   12   24 1
  21   13   14 1
  22   13   18 1
  23   13   25 1
  24   14   15 1
  25   14   26 1
  26   14   27 1
  27   15   16 1
  28   15   28 1
  29   15   29 1
  30   16   17 1
  31   16   30 1
  32   17   18 1
  33   17   31 1
  34   17   32 1
  35   18   33 1
  36   18   34 1

#	End of record

