#	Name: ASD08178077
#	Creating user name:	WinNT
#	Creation time:	15. 06. 2019 21:18

#	Modifying user name:	WinNT
#	Modification time:	15. 06. 2019 21:18

#	Program:	/corina/corina34_cracker 3.40 0067  02.08.2006

@<TRIPOS>MOLECULE
ASD08178077
  49   50    0    0    0
SMALL
NO_CHARGES


@<TRIPOS>ATOM
   1 N1            -0.0150     1.2583     0.0090 N.2     
   2 N2             0.0021    -0.0041     0.0020 N.2     
   3 C3             1.1271     1.8769     0.0014 C.2     
   4 S4             2.3826     0.7116    -0.0169 S.3     
   5 C5             1.1681    -0.5677    -0.0121 C.2     
   6 N6             1.3017     3.2566     0.0067 N.am    
   7 C7             0.2284     4.0717     0.0214 C.2     
   8 O8            -0.8897     3.6019     0.0299 O.2     
   9 C9             1.4387    -2.0502    -0.0227 C.3     
  10 C10            2.1699    -6.2152    -3.4347 C.3     
  11 C11            2.2167    -6.5408    -4.9053 C.2     
  12 N12            3.2694    -6.5184    -5.6596 N.2     
  13 S13            0.8491    -7.0282    -5.9071 S.3     
  14 C14            1.9000    -7.1354    -7.2557 C.2     
  15 N15            3.1017    -6.8250    -6.8728 N.2     
  16 N16            1.5289    -7.4992    -8.5457 N.am    
  17 C17            2.4537    -7.5464    -9.5250 C.2     
  18 O18            3.6096    -7.2716    -9.2812 O.2     
  19 C19            2.0516    -7.9407   -10.9228 C.3     
  20 C20            0.4176     5.5667     0.0272 C.3     
  21 C21            0.7441     6.0340     1.4470 C.3     
  22 C22            1.4602    -9.3516   -10.9046 C.3     
  23 C23            1.5165    -2.5442    -1.4687 C.3     
  24 S24            1.8422    -4.3286    -1.4814 S.3     
  25 N25           -0.8166     6.2183    -0.4311 N.3     
  26 N26            3.2317    -7.9156   -11.7973 N.3     
  27 C27            1.8986    -4.7206    -3.2516 C.3     
  28 H28            2.1959     3.6323    -0.0001 H       
  29 H29            2.3843    -2.2506     0.4811 H       
  30 H30            0.6334    -2.5702     0.4961 H       
  31 H31            1.3741    -6.7896    -2.9605 H       
  32 H32            3.1250    -6.4700    -2.9755 H       
  33 H33            0.6045    -7.7190    -8.7407 H       
  34 H34            1.3064    -7.2392   -11.2980 H       
  35 H35            1.2377     5.8318    -0.6401 H       
  36 H36            1.6599     5.5506     1.7871 H       
  37 H37            0.8809     7.1154     1.4512 H       
  38 H38           -0.0761     5.7690     2.1143 H       
  39 H39            0.5846    -9.3703   -10.2557 H       
  40 H40            1.1694    -9.6368   -11.9156 H       
  41 H41            2.2054   -10.0531   -10.5294 H       
  42 H42            0.5709    -2.3438    -1.9724 H       
  43 H43            2.3218    -2.0242    -1.9874 H       
  44 H44           -1.5924     5.9880     0.1716 H       
  45 H45           -0.6947     7.2177    -0.4977 H       
  46 H46            3.9627    -8.5094   -11.4353 H       
  47 H47            2.9880    -8.1765   -12.7410 H       
  48 H48            2.6943    -4.1461    -3.7258 H       
  49 H49            0.9434    -4.4658    -3.7108 H       
@<TRIPOS>BOND
   1    1    2 1
   2    1    3 2
   3    2    5 2
   4    3    4 1
   5    3    6 1
   6    4    5 1
   7    5    9 1
   8    6    7 am
   9    6   28 1
  10    7    8 2
  11    7   20 1
  12    9   23 1
  13    9   29 1
  14    9   30 1
  15   10   11 1
  16   10   27 1
  17   10   31 1
  18   10   32 1
  19   11   12 2
  20   11   13 1
  21   12   15 1
  22   13   14 1
  23   14   15 2
  24   14   16 1
  25   16   17 am
  26   16   33 1
  27   17   18 2
  28   17   19 1
  29   19   22 1
  30   19   26 1
  31   19   34 1
  32   20   21 1
  33   20   25 1
  34   20   35 1
  35   21   36 1
  36   21   37 1
  37   21   38 1
  38   22   39 1
  39   22   40 1
  40   22   41 1
  41   23   24 1
  42   23   42 1
  43   23   43 1
  44   24   27 1
  45   25   44 1
  46   25   45 1
  47   26   46 1
  48   26   47 1
  49   27   48 1
  50   27   49 1

#	End of record

