#	Name: ASD05213027
#	Creating user name:	WinNT
#	Creation time:	15. 06. 2019 20:57

#	Modifying user name:	WinNT
#	Modification time:	15. 06. 2019 20:57

#	Program:	/corina/corina34_cracker 3.40 0067  02.08.2006

@<TRIPOS>MOLECULE
ASD05213027
  23   25    0    0    0
SMALL
NO_CHARGES


@<TRIPOS>ATOM
   1 S1            -0.0218     1.7577     0.0117 S.3     
   2 C2             0.0021    -0.0041     0.0020 C.2     
   3 C3             1.7090     2.0873    -0.0030 C.2     
   4 N4             2.2454     3.2814    -0.0018 N.2     
   5 C5             3.5999     3.1514    -0.0154 C.ar    
   6 C6             3.8718     1.7750    -0.0254 C.ar    
   7 O7             2.6724     1.1487    -0.0115 O.3     
   8 C8             4.6554     4.0647    -0.0206 C.ar    
   9 C9             5.9556     3.6067    -0.0355 C.ar    
  10 C10            6.2193     2.2445    -0.0458 C.ar    
  11 C11            5.1841     1.3315    -0.0399 C.ar    
  12 S12           -1.3858    -1.0024     0.0099 S.3     
  13 C13           -0.3659    -2.4387    -0.0087 C.2     
  14 C14            0.9078    -2.0420    -0.0190 C.2     
  15 N15            1.0751    -0.7325    -0.0178 N.2     
  16 Cl16           7.2702     4.7404    -0.0419 Cl      
  17 N17           -0.8401    -3.8429    -0.0122 N.pl3   
  18 O18           -0.0357    -4.7574    -0.0252 O.2     
  19 O19           -2.0343    -4.0824    -0.0023 O.2     
  20 H20            4.4543     5.1258    -0.0133 H       
  21 H21            7.2415     1.8962    -0.0577 H       
  22 H22            5.3970     0.2727    -0.0477 H       
  23 H23            1.7351    -2.7361    -0.0307 H       
@<TRIPOS>BOND
   1    1    2 1
   2    1    3 1
   3    2   12 1
   4    2   15 2
   5    3    4 2
   6    3    7 1
   7    4    5 1
   8    5    6 ar
   9    5    8 ar
  10    6    7 1
  11    6   11 ar
  12    8    9 ar
  13    8   20 1
  14    9   10 ar
  15    9   16 1
  16   10   11 ar
  17   10   21 1
  18   11   22 1
  19   12   13 1
  20   13   14 2
  21   13   17 1
  22   14   15 1
  23   14   23 1
  24   17   18 2
  25   17   19 2

#	End of record

