#	Name: ASD01810175
#	Creating user name:	WinNT
#	Creation time:	15. 06. 2019 19:24

#	Modifying user name:	WinNT
#	Modification time:	15. 06. 2019 19:24

#	Program:	/corina/corina34_cracker 3.40 0067  02.08.2006

@<TRIPOS>MOLECULE
ASD01810175
  37   39    0    0    0
SMALL
NO_CHARGES


@<TRIPOS>ATOM
   1 C1            -0.0730     1.3177     0.1697 C.ar    
   2 C2            -0.0301    -0.0680     0.1582 C.ar    
   3 C3             1.1757    -0.7359     0.0915 C.ar    
   4 C4             2.3683    -0.0170     0.0343 C.ar    
   5 C5             2.3232     1.3876     0.0456 C.ar    
   6 C6             1.0954     2.0508     0.1139 C.ar    
   7 N7             3.5794    -0.6732    -0.0315 N.pl3   
   8 C8             4.7516    -0.0284    -0.0871 C.2     
   9 C9             4.8339     1.3494    -0.0821 C.2     
  10 C10            3.5912     2.1359    -0.0153 C.2     
  11 O11            3.6105     3.3544    -0.0087 O.2     
  12 C12            6.1401     2.0200    -0.1434 C.2     
  13 O13            6.2075     3.3664    -0.1378 O.3     
  14 O14            7.1598     1.3606    -0.1991 O.2     
  15 C15            3.5837    -2.1382    -0.0406 C.3     
  16 C16            3.7124    -2.6489     1.3714 C.ar    
  17 C17            2.5895    -2.7682     2.1682 C.ar    
  18 C18            2.7076    -3.2366     3.4636 C.ar    
  19 C19            3.9487    -3.5861     3.9616 C.ar    
  20 C20            5.0719    -3.4677     3.1642 C.ar    
  21 C21            4.9532    -3.0034     1.8678 C.ar    
  22 F22            1.2002    -2.0867     0.0821 F       
  23 F23            1.0518     3.4011     0.1243 F       
  24 C24            6.4251    -3.8483     3.7074 C.3     
  25 F25            6.2903    -4.2889     5.0283 F       
  26 F26            6.9692    -4.8740     2.9269 F       
  27 F27            7.2720    -2.7353     3.6711 F       
  28 H28           -1.0248     1.8258     0.2181 H       
  29 H29           -0.9506    -0.6311     0.2023 H       
  30 H30            5.6630    -0.6057    -0.1372 H       
  31 H31            7.0888     3.7620    -0.1795 H       
  32 H32            2.6523    -2.5016    -0.4749 H       
  33 H33            4.4251    -2.4954    -0.6343 H       
  34 H34            1.6197    -2.4951     1.7791 H       
  35 H35            1.8302    -3.3292     4.0865 H       
  36 H36            4.0411    -3.9514     4.9738 H       
  37 H37            5.8306    -2.9109     1.2449 H       
@<TRIPOS>BOND
   1    1    2 ar
   2    1    6 ar
   3    1   28 1
   4    2    3 ar
   5    2   29 1
   6    3    4 ar
   7    3   22 1
   8    4    5 ar
   9    4    7 1
  10    5    6 ar
  11    5   10 1
  12    6   23 1
  13    7    8 1
  14    7   15 1
  15    8    9 2
  16    8   30 1
  17    9   10 1
  18    9   12 1
  19   10   11 2
  20   12   13 1
  21   12   14 2
  22   13   31 1
  23   15   16 1
  24   15   32 1
  25   15   33 1
  26   16   17 ar
  27   16   21 ar
  28   17   18 ar
  29   17   34 1
  30   18   19 ar
  31   18   35 1
  32   19   20 ar
  33   19   36 1
  34   20   21 ar
  35   20   24 1
  36   21   37 1
  37   24   25 1
  38   24   26 1
  39   24   27 1

#	End of record

