#	Name: ASD03731160
#	Creating user name:	WinNT
#	Creation time:	15. 06. 2019 20:45

#	Modifying user name:	WinNT
#	Modification time:	15. 06. 2019 20:45

#	Program:	/corina/corina34_cracker 3.40 0067  02.08.2006

@<TRIPOS>MOLECULE
ASD03731160
  69   74    0    0    0
SMALL
NO_CHARGES


@<TRIPOS>ATOM
   1 O1            -0.0174     1.4356     0.0099 O.3     
   2 C2             0.0021    -0.0041     0.0020 C.3     
   3 O3             1.2461    -0.3262    -0.6470 O.3     
   4 C4             2.0710     0.7345    -0.4034 C.ar    
   5 C5             1.2935     1.8178    -0.0005 C.ar    
   6 C6             3.4452     0.8649    -0.4936 C.ar    
   7 C7             4.0602     2.0747    -0.1856 C.ar    
   8 C8             3.2723     3.1522     0.2076 C.ar    
   9 C9             1.9024     3.0234     0.3045 C.ar    
  10 O10            5.3831     2.4065    -0.1922 O.3     
  11 C11            4.2098     4.3069     0.4393 C.3     
  12 C12            5.5129     3.8410    -0.2242 C.3     
  13 N13            3.6127     6.4762     0.8417 N.am    
  14 C14            3.6993     5.5834    -0.1645 C.2     
  15 C15            4.3992     4.6044     1.8972 C.ar    
  16 C16            4.8378     3.8614     2.9705 C.ar    
  17 C17            4.9039     4.4334     4.2285 C.ar    
  18 C18            4.5284     5.7527     4.4051 C.ar    
  19 C19            4.0877     6.5009     3.3334 C.ar    
  20 C20            4.0181     5.9334     2.0634 C.ar    
  21 O21            3.4201     5.7739    -1.3293 O.2     
  22 C22            3.1483     7.8554     0.6736 C.3     
  23 C23            1.6327     7.9114     0.8755 C.3     
  24 N24           -0.2732    11.6358     1.7501 N.3     
  25 C25           -0.8568    10.8400     0.6626 C.3     
  26 C26           -0.3811     9.3900     0.7779 C.3     
  27 C27            1.1476     9.3518     0.6999 C.3     
  28 C28            1.7297    10.2271     1.8133 C.3     
  29 C29            1.1928    11.6528     1.6680 C.3     
  30 C30           -0.7895    15.2054     2.9233 C.3     
  31 C31           -0.2820    13.7618     2.9707 C.3     
  32 C32           -0.8161    13.0008     1.7533 C.3     
  33 C33           -0.3799    13.7288     0.4781 C.3     
  34 C34           -0.8836    15.1737     0.5270 C.3     
  35 O35           -0.3753    15.8146     1.6987 O.3     
  36 H36           -0.0105    -0.3928     1.0203 H       
  37 H37           -0.8401    -0.3953    -0.5687 H       
  38 H38            4.0448     0.0222    -0.8046 H       
  39 H39            1.3032     3.8652     0.6186 H       
  40 H40            6.3787     4.1643     0.3536 H       
  41 H41            5.5749     4.2013    -1.2510 H       
  42 H42            5.1300     2.8312     2.8302 H       
  43 H43            5.2475     3.8510     5.0706 H       
  44 H44            4.5803     6.1993     5.3870 H       
  45 H45            3.7954     7.5303     3.4796 H       
  46 H46            3.6366     8.4954     1.4085 H       
  47 H47            3.3941     8.2017    -0.3303 H       
  48 H48            1.1443     7.2714     0.1406 H       
  49 H49            1.3868     7.5650     1.8794 H       
  50 H50           -1.9441    10.8721     0.7321 H       
  51 H51           -0.5421    11.2503    -0.2969 H       
  52 H52           -0.7073     8.9747     1.7314 H       
  53 H53           -0.8019     8.8030    -0.0384 H       
  54 H54            1.4725     9.7299    -0.2694 H       
  55 H55            1.4367     9.8249     2.7831 H       
  56 H56            2.8170    10.2380     1.7367 H       
  57 H57            1.4979    12.0592     0.7037 H       
  58 H58            1.5942    12.2752     2.4677 H       
  59 H59           -1.8779    15.2102     2.9817 H       
  60 H60           -0.3777    15.7633     3.7643 H       
  61 H61            0.8079    13.7581     2.9531 H       
  62 H62           -0.6341    13.2817     3.8837 H       
  63 H63           -1.9045    12.9603     1.7974 H       
  64 H64            0.7080    13.7244     0.4102 H       
  65 H65           -0.8021    13.2251    -0.3914 H       
  66 H66           -0.5397    15.7087    -0.3582 H       
  67 H67           -1.9733    15.1780     0.5541 H       
  68 Cl68          11.3787    20.8146    10.3870 Cl      
  69 H69           11.3787    22.1846    10.3870 H       
@<TRIPOS>BOND
   1    1    2 1
   2    1    5 1
   3    2    3 1
   4    2   36 1
   5    2   37 1
   6    3    4 1
   7    4    5 ar
   8    4    6 ar
   9    5    9 ar
  10    6    7 ar
  11    6   38 1
  12    7    8 ar
  13    7   10 1
  14    8    9 ar
  15    8   11 1
  16    9   39 1
  17   10   12 1
  18   11   12 1
  19   11   14 1
  20   11   15 1
  21   12   40 1
  22   12   41 1
  23   13   14 am
  24   13   20 1
  25   13   22 1
  26   14   21 2
  27   15   16 ar
  28   15   20 ar
  29   16   17 ar
  30   16   42 1
  31   17   18 ar
  32   17   43 1
  33   18   19 ar
  34   18   44 1
  35   19   20 ar
  36   19   45 1
  37   22   23 1
  38   22   46 1
  39   22   47 1
  40   23   27 1
  41   23   48 1
  42   23   49 1
  43   24   25 1
  44   24   29 1
  45   24   32 1
  46   25   26 1
  47   25   50 1
  48   25   51 1
  49   26   27 1
  50   26   52 1
  51   26   53 1
  52   27   28 1
  53   27   54 1
  54   28   29 1
  55   28   55 1
  56   28   56 1
  57   29   57 1
  58   29   58 1
  59   30   31 1
  60   30   35 1
  61   30   59 1
  62   30   60 1
  63   31   32 1
  64   31   61 1
  65   31   62 1
  66   32   33 1
  67   32   63 1
  68   33   34 1
  69   33   64 1
  70   33   65 1
  71   34   35 1
  72   34   66 1
  73   34   67 1
  74   68   69 1

#	End of record

