#	Name: ASD00461034
#	Creating user name:	WinNT
#	Creation time:	15. 06. 2019 18:36

#	Modifying user name:	WinNT
#	Modification time:	15. 06. 2019 18:36

#	Program:	/corina/corina34_cracker 3.40 0067  02.08.2006

@<TRIPOS>MOLECULE
ASD00461034
  53   55    0    0    0
SMALL
NO_CHARGES


@<TRIPOS>ATOM
   1 C1            -0.0167     1.3781     0.0096 C.ar    
   2 C2             0.0021    -0.0041     0.0020 C.ar    
   3 C3             1.1709     2.0855     0.0021 C.ar    
   4 C4             1.2084    -0.6789    -0.0132 C.ar    
   5 C5             2.3773     1.4107    -0.0136 C.ar    
   6 C6             1.1505     3.5924     0.0104 C.3     
   7 C7             2.3960     0.0285    -0.0212 C.ar    
   8 N8             2.1962     4.1012    -0.8871 N.3     
   9 C9             1.8635     5.4469    -1.3734 C.3     
  10 C10            3.1297     6.1726    -1.7490 C.ar    
  11 C11            4.1465     5.4943    -2.3980 C.ar    
  12 C12            3.2688     7.5126    -1.4496 C.ar    
  13 C13            5.3110     6.1512    -2.7468 C.ar    
  14 C14            4.4364     8.1859    -1.8014 C.ar    
  15 C15            5.4663     7.4954    -2.4471 C.ar    
  16 C16            4.5910     9.6261    -1.4820 C.ar    
  17 O17            6.6087     8.1435    -2.7941 O.3     
  18 C18            5.7411    10.0804    -0.8393 C.ar    
  19 C19            3.5893    10.5308    -1.8287 C.ar    
  20 C20            5.8798    11.4216    -0.5450 C.ar    
  21 C21            3.7387    11.8698    -1.5294 C.ar    
  22 C22            4.8800    12.3144    -0.8867 C.ar    
  23 C23            5.0373    13.7777    -0.5626 C.3     
  24 H24            3.0974     4.0933    -0.4335 H       
  25 F25            5.6620    14.4277    -1.6324 F       
  26 F26            3.7773    14.3449    -0.3438 F       
  27 F27            5.8187    13.9188     0.5892 F       
  28 H28            1.3471     5.9995    -0.5885 H       
  29 C29            7.6175     7.3735    -3.4510 C.3     
  30 C30            1.4076     4.0980     1.4314 C.3     
  31 C31            0.9562     5.3359    -2.6004 C.3     
  32 H32           -0.9592     1.9054     0.0170 H       
  33 H33           -0.9258    -0.5567     0.0083 H       
  34 H34            1.2231    -1.7588    -0.0184 H       
  35 H35            3.3051     1.9634    -0.0195 H       
  36 H36            0.1767     3.9444    -0.3299 H       
  37 H37            3.3385    -0.4987    -0.0331 H       
  38 H38            4.0295     4.4466    -2.6325 H       
  39 H39            2.4730     8.0388    -0.9434 H       
  40 H40            6.1011     5.6166    -3.2531 H       
  41 H41            6.5222     9.3842    -0.5717 H       
  42 H42            2.6979    10.1849    -2.3309 H       
  43 H43            6.7705    11.7748    -0.0466 H       
  44 H44            2.9632    12.5719    -1.7979 H       
  45 H45            8.4742     8.0102    -3.6718 H       
  46 H46            7.9304     6.5555    -2.8021 H       
  47 H47            7.2174     6.9676    -4.3800 H       
  48 H48            1.3929     5.1879     1.4374 H       
  49 H49            0.6318     3.7205     2.0973 H       
  50 H50            2.3815     3.7460     1.7716 H       
  51 H51            0.0403     4.8110    -2.3287 H       
  52 H52            0.7093     6.3344    -2.9612 H       
  53 H53            1.4725     4.7833    -3.3853 H       
@<TRIPOS>BOND
   1    1    2 ar
   2    1    3 ar
   3    1   32 1
   4    2    4 ar
   5    2   33 1
   6    3    6 1
   7    3    5 ar
   8    4    7 ar
   9    4   34 1
  10    5    7 ar
  11    5   35 1
  12    6    8 1
  13    6   30 1
  14    6   36 1
  15    7   37 1
  16    8    9 1
  17    8   24 1
  18    9   28 1
  19    9   31 1
  20    9   10 1
  21   10   11 ar
  22   10   12 ar
  23   11   13 ar
  24   11   38 1
  25   12   14 ar
  26   12   39 1
  27   13   15 ar
  28   13   40 1
  29   14   16 1
  30   14   15 ar
  31   15   17 1
  32   16   18 ar
  33   16   19 ar
  34   17   29 1
  35   18   20 ar
  36   18   41 1
  37   19   21 ar
  38   19   42 1
  39   20   22 ar
  40   20   43 1
  41   21   22 ar
  42   21   44 1
  43   22   23 1
  44   23   25 1
  45   23   26 1
  46   23   27 1
  47   29   45 1
  48   29   46 1
  49   29   47 1
  50   30   48 1
  51   30   49 1
  52   30   50 1
  53   31   51 1
  54   31   52 1
  55   31   53 1

#	End of record

