#	Name: ASD01910037
#	Creating user name:	WinNT
#	Creation time:	15. 06. 2019 19:55

#	Modifying user name:	WinNT
#	Modification time:	15. 06. 2019 19:55

#	Program:	/corina/corina34_cracker 3.40 0067  02.08.2006

@<TRIPOS>MOLECULE
ASD01910037
  51   54    0    0    0
SMALL
NO_CHARGES


@<TRIPOS>ATOM
   1 C1            -0.0167     1.3769     0.0096 C.ar    
   2 C2             0.0021    -0.0041     0.0020 C.ar    
   3 C3             1.2081    -0.6806    -0.0127 C.ar    
   4 C4             2.3987     0.0227    -0.0198 C.ar    
   5 C5             2.3866     1.4038    -0.0127 C.ar    
   6 C6             1.1772     2.0861     0.0020 C.ar    
   7 N7             1.1616     3.4868     0.0088 N.pl3   
   8 C8             0.2442     4.2803    -0.6108 C.2     
   9 C9             0.5818     5.5730    -0.3620 C.2     
  10 C10            1.7423     5.5692     0.4347 C.2     
  11 N11            2.0832     4.3173     0.6588 N.2     
  12 N12           -0.8443     3.8450    -1.3644 N.am    
  13 C13           -1.6781     4.7432    -1.9251 C.2     
  14 C14           -2.8307     4.2823    -2.7230 C.ar    
  15 C15           -3.6963     5.2124    -3.3051 C.ar    
  16 C16           -4.7735     4.7758    -4.0515 C.ar    
  17 C17           -4.9951     3.4102    -4.2227 C.ar    
  18 C18           -4.1354     2.4863    -3.6440 C.ar    
  19 C19           -3.0558     2.9152    -2.9031 C.ar    
  20 C20            2.4549     6.7688     0.9397 C.ar    
  21 C21            3.5983     6.6248     1.7229 C.ar    
  22 C22            4.2572     7.7440     2.1900 C.ar    
  23 C23            3.7844     9.0069     1.8819 C.ar    
  24 C24            2.6495     9.1557     1.1052 C.ar    
  25 C25            1.9864     8.0435     0.6277 C.ar    
  26 O26           -1.4807     5.9335    -1.7734 O.2     
  27 O27           -5.6180     5.6782    -4.6190 O.3     
  28 C28           -5.3309     7.0611    -4.4020 C.3     
  29 O29           -6.0546     2.9826    -4.9569 O.3     
  30 C30           -6.2225     1.5699    -5.0918 C.3     
  31 H31           -0.9589     1.9047     0.0170 H       
  32 H32           -0.9261    -0.5562     0.0079 H       
  33 H33            1.2201    -1.7605    -0.0182 H       
  34 H34            3.3389    -0.5085    -0.0306 H       
  35 H35            3.3168     1.9525    -0.0179 H       
  36 H36            0.0542     6.4474    -0.7135 H       
  37 H37           -1.0018     2.8955    -1.4854 H       
  38 H38           -3.5236     6.2700    -3.1713 H       
  39 H39           -4.3109     1.4292    -3.7784 H       
  40 H40           -2.3886     2.1944    -2.4540 H       
  41 H41            3.9681     5.6392     1.9643 H       
  42 H42            5.1433     7.6336     2.7974 H       
  43 H43            4.3030     9.8800     2.2495 H       
  44 H44            2.2843    10.1441     0.8683 H       
  45 H45            1.1004     8.1607     0.0213 H       
  46 H46           -5.3512     7.2730    -3.3329 H       
  47 H47           -4.3432     7.2939    -4.7998 H       
  48 H48           -6.0793     7.6713    -4.9075 H       
  49 H49           -7.1035     1.3652    -5.7001 H       
  50 H50           -5.3420     1.1436    -5.5725 H       
  51 H51           -6.3501     1.1234    -4.1057 H       
@<TRIPOS>BOND
   1    1    2 ar
   2    1    6 ar
   3    1   31 1
   4    2    3 ar
   5    2   32 1
   6    3    4 ar
   7    3   33 1
   8    4    5 ar
   9    4   34 1
  10    5    6 ar
  11    5   35 1
  12    6    7 1
  13    7    8 1
  14    7   11 1
  15    8    9 2
  16    8   12 1
  17    9   10 1
  18    9   36 1
  19   10   11 2
  20   10   20 1
  21   12   13 am
  22   12   37 1
  23   13   14 1
  24   13   26 2
  25   14   15 ar
  26   14   19 ar
  27   15   16 ar
  28   15   38 1
  29   16   17 ar
  30   16   27 1
  31   17   18 ar
  32   17   29 1
  33   18   19 ar
  34   18   39 1
  35   19   40 1
  36   20   21 ar
  37   20   25 ar
  38   21   22 ar
  39   21   41 1
  40   22   23 ar
  41   22   42 1
  42   23   24 ar
  43   23   43 1
  44   24   25 ar
  45   24   44 1
  46   25   45 1
  47   27   28 1
  48   28   46 1
  49   28   47 1
  50   28   48 1
  51   29   30 1
  52   30   49 1
  53   30   50 1
  54   30   51 1

#	End of record

