#	Name: ASD04840005
#	Creating user name:	WinNT
#	Creation time:	15. 06. 2019 20:52

#	Modifying user name:	WinNT
#	Modification time:	15. 06. 2019 20:52

#	Program:	/corina/corina34_cracker 3.40 0067  02.08.2006

@<TRIPOS>MOLECULE
ASD04840005
  35   37    0    0    0
SMALL
NO_CHARGES


@<TRIPOS>ATOM
   1 Cl1            0.3742    -1.3727    -0.6649 Cl      
   2 C2            -0.0794     0.3652    -0.5080 C.3     
   3 C3             1.1614     1.1898    -0.2812 C.ar    
   4 C4             1.8422     1.6998    -1.3782 C.ar    
   5 C5             2.9850     2.4599    -1.1845 C.ar    
   6 N6             3.6871     2.9838    -2.2606 N.pl3   
   7 C7             3.2089     2.8092    -3.5535 C.ar    
   8 C8             3.7570     1.8320    -4.3747 C.ar    
   9 C9             3.2803     1.6605    -5.6584 C.ar    
  10 C10            2.2539     2.4583    -6.1384 C.ar    
  11 C11            1.6970     3.4326    -5.3390 C.ar    
  12 C12            2.1650     3.6159    -4.0351 C.ar    
  13 C13            1.5740     4.6553    -3.1746 C.2     
  14 O14            2.0504     4.8810    -2.0797 O.2     
  15 O15            0.5049     5.3560    -3.6016 O.3     
  16 C16            3.4128     2.6851     0.1456 C.ar    
  17 C17            2.6621     2.1297     1.2093 C.ar    
  18 N18            1.5650     1.4100     0.9484 N.ar    
  19 C19            3.0844     2.3515     2.5316 C.ar    
  20 C20            4.2015     3.0923     2.7687 C.ar    
  21 C21            4.9378     3.6373     1.7196 C.ar    
  22 C22            4.5585     3.4426     0.4255 C.ar    
  23 H23           -0.5733     0.6957    -1.4217 H       
  24 H24           -0.7573     0.4890     0.3366 H       
  25 H25            1.4832     1.5049    -2.3780 H       
  26 H26            4.5118     3.4720    -2.1103 H       
  27 H27            4.5572     1.2061    -4.0082 H       
  28 H28            3.7102     0.8999    -6.2931 H       
  29 H29            1.8886     2.3158    -7.1448 H       
  30 H30            0.8974     4.0515    -5.7184 H       
  31 H31            0.1521     6.0276    -3.0020 H       
  32 H32            2.5243     1.9361     3.3564 H       
  33 H33            4.5218     3.2603     3.7864 H       
  34 H34            5.8205     4.2213     1.9345 H       
  35 H35            5.1372     3.8697    -0.3801 H       
@<TRIPOS>BOND
   1    1    2 1
   2    2    3 1
   3    2   23 1
   4    2   24 1
   5    3    4 ar
   6    3   18 ar
   7    4    5 ar
   8    4   25 1
   9    5    6 1
  10    5   16 ar
  11    6    7 1
  12    6   26 1
  13    7    8 ar
  14    7   12 ar
  15    8    9 ar
  16    8   27 1
  17    9   10 ar
  18    9   28 1
  19   10   11 ar
  20   10   29 1
  21   11   12 ar
  22   11   30 1
  23   12   13 1
  24   13   14 2
  25   13   15 1
  26   15   31 1
  27   16   17 ar
  28   16   22 ar
  29   17   18 ar
  30   17   19 ar
  31   19   20 ar
  32   19   32 1
  33   20   21 ar
  34   20   33 1
  35   21   22 ar
  36   21   34 1
  37   22   35 1

#	End of record

