#	Name: ASD01913215
#	Creating user name:	WinNT
#	Creation time:	15. 06. 2019 20:01

#	Modifying user name:	WinNT
#	Modification time:	15. 06. 2019 20:01

#	Program:	/corina/corina34_cracker 3.40 0067  02.08.2006

@<TRIPOS>MOLECULE
ASD01913215
  48   51    0    0    0
SMALL
NO_CHARGES


@<TRIPOS>ATOM
   1 C1             1.9815     2.3661    -1.5655 C.3     
   2 C2             1.0759     2.8537    -2.6711 C.2     
   3 C3            -0.2539     3.0781    -2.5156 C.2     
   4 C4            -1.0082     2.8810    -1.2249 C.3     
   5 C5            -0.1725     1.9933    -0.2943 C.3     
   6 N6             1.2217     2.4593    -0.3057 N.am    
   7 N7             0.3264     3.5364    -4.6096 N.2     
   8 N8            -0.7387     3.4964    -3.6975 N.pl3   
   9 C9             1.4141     3.1495    -3.9886 C.2     
  10 C10            2.7898     3.0443    -4.5947 C.3     
  11 F11            2.9686     1.7625    -5.1260 F       
  12 F12            2.9248     3.9941    -5.6129 F       
  13 F13            3.7533     3.2785    -3.6077 F       
  14 C14            1.7915     2.9591     0.8088 C.2     
  15 O15            1.1222     3.1306     1.8092 O.2     
  16 C16            3.2284     3.2983     0.8148 C.ar    
  17 C17            3.6830     4.3939     1.5475 C.ar    
  18 C18            5.0400     4.7090     1.5493 C.ar    
  19 C19            5.9396     3.9205     0.8130 C.ar    
  20 C20            5.4758     2.8327     0.0876 C.ar    
  21 C21            4.1343     2.5173     0.0903 C.ar    
  22 C22            5.5159     5.8327     2.2985 C.1     
  23 C23            5.9060     6.7540     2.9128 C.1     
  24 C24            6.3819     7.8778     3.6621 C.ar    
  25 C25            7.7449     8.1872     3.6586 C.ar    
  26 C26            8.1878     9.2758     4.3869 C.ar    
  27 C27            7.2567    10.0227     5.0968 C.ar    
  28 C28            5.9227     9.6613     5.0569 C.ar    
  29 N29            5.5232     8.6228     4.3518 N.ar    
  30 O30            7.2616     4.2230     0.8108 O.3     
  31 C31            8.1191     3.3785     0.0403 C.3     
  32 H32            2.2682     1.3308    -1.7502 H       
  33 H33            2.8706     2.9941    -1.5100 H       
  34 H34           -1.1799     3.8475    -0.7509 H       
  35 H35           -1.9635     2.3978    -1.4301 H       
  36 H36           -0.5686     2.0537     0.7194 H       
  37 H37           -0.2140     0.9609    -0.6416 H       
  38 H38           -1.6612     3.7292    -3.8863 H       
  39 H39            2.9858     4.9961     2.1111 H       
  40 H40            6.1693     2.2282    -0.4781 H       
  41 H41            3.7807     1.6662    -0.4727 H       
  42 H42            8.4420     7.5844     3.0955 H       
  43 H43            9.2350     9.5393     4.4038 H       
  44 H44            7.5720    10.8784     5.6753 H       
  45 H45            5.1974    10.2409     5.6087 H       
  46 H46            7.8109     3.4045    -1.0049 H       
  47 H47            9.1472     3.7305     0.1249 H       
  48 H48            8.0531     2.3564     0.4132 H       
@<TRIPOS>BOND
   1    1    2 1
   2    1    6 1
   3    1   32 1
   4    1   33 1
   5    2    3 2
   6    2    9 1
   7    3    4 1
   8    3    8 1
   9    4    5 1
  10    4   34 1
  11    4   35 1
  12    5    6 1
  13    5   36 1
  14    5   37 1
  15    6   14 am
  16    7    8 1
  17    7    9 2
  18    8   38 1
  19    9   10 1
  20   10   11 1
  21   10   12 1
  22   10   13 1
  23   14   15 2
  24   14   16 1
  25   16   17 ar
  26   16   21 ar
  27   17   18 ar
  28   17   39 1
  29   18   19 ar
  30   18   22 1
  31   19   20 ar
  32   19   30 1
  33   20   21 ar
  34   20   40 1
  35   21   41 1
  36   22   23 3
  37   23   24 1
  38   24   25 ar
  39   24   29 ar
  40   25   26 ar
  41   25   42 1
  42   26   27 ar
  43   26   43 1
  44   27   28 ar
  45   27   44 1
  46   28   29 ar
  47   28   45 1
  48   30   31 1
  49   31   46 1
  50   31   47 1
  51   31   48 1

#	End of record

