#	Name: ASD01940368
#	Creating user name:	WinNT
#	Creation time:	15. 06. 2019 20:12

#	Modifying user name:	WinNT
#	Modification time:	15. 06. 2019 20:12

#	Program:	/corina/corina34_cracker 3.40 0067  02.08.2006

@<TRIPOS>MOLECULE
ASD01940368
  39   41    0    0    0
SMALL
NO_CHARGES


@<TRIPOS>ATOM
   1 C1             0.9466     0.1513    -2.9316 C.ar    
   2 N2             1.2411    -2.0794    -0.0205 N.pl3   
   3 O3             1.3345    -6.0944     1.1868 O.3     
   4 C4             1.1161    -0.9943    -2.1768 C.ar    
   5 N5             0.1486    -4.3531     0.7809 N.2     
   6 C6             1.0705    -0.9227    -0.7880 C.ar    
   7 N7            -0.6521    -5.2911     1.1472 N.2     
   8 C8             0.8550     0.2994    -0.1659 C.ar    
   9 N9            -0.4772    -7.5897     1.8252 N.pl3   
  10 C10            0.6863     1.4406    -0.9266 C.ar    
  11 N11           -3.6687    -9.3296     2.6792 N.3     
  12 C12            0.7319     1.3673    -2.3068 C.ar    
  13 C13            2.4903    -2.6988     0.0399 C.ar    
  14 C14            2.5928    -4.0399     0.4358 C.ar    
  15 C15            3.8473    -4.6500     0.4930 C.ar    
  16 C16            4.9777    -3.9336     0.1609 C.ar    
  17 C17            4.8755    -2.6070    -0.2306 C.ar    
  18 C18            3.6367    -1.9912    -0.2972 C.ar    
  19 C19            1.3801    -4.8031     0.7909 C.2     
  20 C20            0.0361    -6.3771     1.4056 C.2     
  21 C21           -1.9207    -7.7459     2.0206 C.3     
  22 C22           -2.2213    -9.1730     2.4833 C.3     
  23 F23            3.5441    -0.7003    -0.6848 F       
  24 F24            5.9892    -1.9137    -0.5535 F       
  25 F25            1.3252    -2.1815    -2.7866 F       
  26 I26            0.4754     3.1011    -3.4545 I       
  27 H27            0.9861     0.0981    -4.0096 H       
  28 H28            0.4912    -2.4512     0.4697 H       
  29 H29            0.8188     0.3582     0.9119 H       
  30 H30            0.1182    -8.3374     1.9903 H       
  31 H31            0.5183     2.3913    -0.4425 H       
  32 H32           -3.8931   -10.2646     2.9851 H       
  33 H33           -4.0223    -8.6423     3.3278 H       
  34 H34            3.9324    -5.6827     0.7975 H       
  35 H35            5.9470    -4.4076     0.2062 H       
  36 H36           -2.2637    -7.0392     2.7763 H       
  37 H37           -2.4377    -7.5522     1.0808 H       
  38 H38           -1.7043    -9.3667     3.4231 H       
  39 H39           -1.8784    -9.8797     1.7276 H       
@<TRIPOS>BOND
   1    1    4 ar
   2    1   12 ar
   3    1   27 1
   4    2    6 1
   5    2   13 1
   6    2   28 1
   7    3   19 1
   8    3   20 1
   9    4    6 ar
  10    4   25 1
  11    5    7 1
  12    5   19 2
  13    6    8 ar
  14    7   20 2
  15    8   10 ar
  16    8   29 1
  17    9   20 1
  18    9   21 1
  19    9   30 1
  20   10   12 ar
  21   10   31 1
  22   11   22 1
  23   11   32 1
  24   11   33 1
  25   12   26 1
  26   13   14 ar
  27   13   18 ar
  28   14   15 ar
  29   14   19 1
  30   15   16 ar
  31   15   34 1
  32   16   17 ar
  33   16   35 1
  34   17   18 ar
  35   17   24 1
  36   18   23 1
  37   21   22 1
  38   21   36 1
  39   21   37 1
  40   22   38 1
  41   22   39 1

#	End of record

