#	Name: ASD01885145
#	Creating user name:	WinNT
#	Creation time:	15. 06. 2019 19:49

#	Modifying user name:	WinNT
#	Modification time:	15. 06. 2019 19:49

#	Program:	/corina/corina34_cracker 3.40 0067  02.08.2006

@<TRIPOS>MOLECULE
ASD01885145
  55   59    0    0    0
SMALL
NO_CHARGES


@<TRIPOS>ATOM
   1 C1             1.5337     0.8626     2.0789 C.2     
   2 C2             1.4888    -0.5301     1.8919 C.2     
   3 C3             1.7559    -1.0454     0.6520 C.2     
   4 C4             2.0704    -0.1729    -0.4121 C.2     
   5 C5             2.1077     1.1589    -0.2103 C.2     
   6 N6             1.8431     1.6830     1.0215 N.pl3   
   7 C7             1.8048     2.9544     1.5137 C.2     
   8 N8             1.4924     2.8761     2.7805 N.2     
   9 N9             1.3255     1.6477     3.1250 N.2     
  10 C10            2.0736     4.2186     0.7387 C.3     
  11 N11            1.7181    -2.4219     0.4420 N.pl3   
  12 C12            2.9333    -3.1547     0.0612 C.3     
  13 C13            2.6468    -3.9564    -1.2123 C.3     
  14 C14            1.4218    -4.8453    -0.9860 C.3     
  15 C15            0.2036    -3.9702    -0.6819 C.3     
  16 C16            0.4636    -3.1695     0.6031 C.3     
  17 C17            0.7655     4.7357     0.1368 C.3     
  18 C18            1.1533    -5.6732    -2.2444 C.3     
  19 C19            2.4024    -6.4241    -2.6276 C.ar    
  20 C20            2.9878    -6.2079    -3.8611 C.ar    
  21 C21            4.1336    -6.8967    -4.2127 C.ar    
  22 C22            4.6942    -7.8014    -3.3306 C.ar    
  23 C23            4.1094    -8.0169    -2.0968 C.ar    
  24 C24            2.9661    -7.3249    -1.7435 C.ar    
  25 C25            0.8064     6.0798    -0.5930 C.3     
  26 C26            0.6592     4.7814    -1.3888 C.3     
  27 Cl27           1.1001    -1.5828     3.2165 Cl      
  28 C28            0.0243    -6.6684    -1.9688 C.3     
  29 F29           -1.1703    -5.9716    -1.7574 F       
  30 F30           -0.1223    -7.5230    -3.0667 F       
  31 F31            0.3332    -7.4205    -0.8303 F       
  32 H32            2.2822    -0.5744    -1.3920 H       
  33 H33            2.3494     1.8177    -1.0313 H       
  34 H34            2.4894     4.9729     1.4067 H       
  35 H35            2.7842     4.0103    -0.0612 H       
  36 H36            3.7423    -2.4485    -0.1257 H       
  37 H37            3.2171    -3.8343     0.8648 H       
  38 H38            2.4518    -3.2713    -2.0374 H       
  39 H39            3.5089    -4.5790    -1.4519 H       
  40 H40            1.6081    -5.5132    -0.1450 H       
  41 H41            0.0316    -3.2850    -1.5120 H       
  42 H42           -0.6733    -4.6027    -0.5439 H       
  43 H43            0.5448    -3.8522     1.4489 H       
  44 H44           -0.3570    -2.4721     0.7713 H       
  45 H45           -0.1376     4.4948     0.6976 H       
  46 H46            0.8628    -5.0109    -3.0599 H       
  47 H47            2.5498    -5.5011    -4.5502 H       
  48 H48            4.5905    -6.7283    -5.1767 H       
  49 H49            5.5890    -8.3401    -3.6056 H       
  50 H50            4.5472    -8.7240    -1.4077 H       
  51 H51            2.5091    -7.4933    -0.7795 H       
  52 H52           -0.0700     6.7230    -0.5127 H       
  53 H53            1.7652     6.5957    -0.6444 H       
  54 H54            1.5212     4.4430    -1.9637 H       
  55 H55           -0.3140     4.5703    -1.8321 H       
@<TRIPOS>BOND
   1    1    2 1
   2    1    6 1
   3    1    9 2
   4    2    3 2
   5    2   27 1
   6    3    4 1
   7    3   11 1
   8    4    5 2
   9    4   32 1
  10    5    6 1
  11    5   33 1
  12    6    7 1
  13    7    8 2
  14    7   10 1
  15    8    9 1
  16   10   17 1
  17   10   34 1
  18   10   35 1
  19   11   12 1
  20   11   16 1
  21   12   13 1
  22   12   36 1
  23   12   37 1
  24   13   14 1
  25   13   38 1
  26   13   39 1
  27   14   15 1
  28   14   18 1
  29   14   40 1
  30   15   16 1
  31   15   41 1
  32   15   42 1
  33   16   43 1
  34   16   44 1
  35   17   25 1
  36   17   26 1
  37   17   45 1
  38   18   19 1
  39   18   28 1
  40   18   46 1
  41   19   20 ar
  42   19   24 ar
  43   20   21 ar
  44   20   47 1
  45   21   22 ar
  46   21   48 1
  47   22   23 ar
  48   22   49 1
  49   23   24 ar
  50   23   50 1
  51   24   51 1
  52   25   26 1
  53   25   52 1
  54   25   53 1
  55   26   54 1
  56   26   55 1
  57   28   29 1
  58   28   30 1
  59   28   31 1

#	End of record

