#	Name: ASD00100123
#	Creating user name:	WinNT
#	Creation time:	15. 06. 2019 18:30

#	Modifying user name:	WinNT
#	Modification time:	15. 06. 2019 18:30

#	Program:	/corina/corina34_cracker 3.40 0067  02.08.2006

@<TRIPOS>MOLECULE
ASD00100123
  52   56    0    0    0
SMALL
NO_CHARGES


@<TRIPOS>ATOM
   1 N1            -0.1278     1.5390     0.3495 N.pl3   
   2 C2            -0.0195     0.1695     0.1739 C.2     
   3 N3             1.0998    -0.4995     0.0294 N.2     
   4 C4             0.8210    -1.8060    -0.1163 C.2     
   5 C5            -0.5126    -1.9619    -0.0617 C.2     
   6 N6            -1.0554    -0.7110     0.1279 N.pl3   
   7 C7            -2.4790    -0.3888     0.2535 C.3     
   8 C8            -3.0265     0.0019    -1.0951 C.ar    
   9 C9            -3.4535    -0.9767    -1.9812 C.ar    
  10 C10           -3.9569    -0.6139    -3.2217 C.ar    
  11 C11           -4.0319     0.7205    -3.5721 C.ar    
  12 C12           -3.6054     1.6936    -2.6877 C.ar    
  13 C13           -3.1088     1.3348    -1.4479 C.ar    
  14 O14           -3.3783    -2.2886    -1.6344 O.3     
  15 C15           -3.8359    -3.2412    -2.5963 C.3     
  16 C16            1.8310    -2.9077    -0.3090 C.3     
  17 C17            3.1834    -2.2996    -0.6858 C.3     
  18 C18            4.2089    -3.4181    -0.8814 C.3     
  19 C19            3.7395    -4.3505    -2.0000 C.3     
  20 C20            2.3870    -4.9586    -1.6231 C.3     
  21 C21            2.5295    -5.7529    -0.3232 C.3     
  22 C22            2.9989    -4.8206     0.7954 C.3     
  23 C23            1.9734    -3.7020     0.9909 C.3     
  24 C24            4.3513    -4.2124     0.4185 C.3     
  25 C25            1.3616    -3.8401    -1.4276 C.3     
  26 H26            0.6717     2.0829     0.4259 H       
  27 H27           -1.0031     1.9548     0.3921 H       
  28 H28           -1.0551    -2.8919    -0.1466 H       
  29 H29           -3.0173    -1.2605     0.6255 H       
  30 H30           -2.6038     0.4400     0.9503 H       
  31 H31           -4.2896    -1.3738    -3.9133 H       
  32 H32           -4.4238     1.0036    -4.5379 H       
  33 H33           -3.6642     2.7361    -2.9637 H       
  34 H34           -2.7807     2.0971    -0.7568 H       
  35 H35           -3.7208    -4.2477    -2.1941 H       
  36 H36           -4.8870    -3.0568    -2.8186 H       
  37 H37           -3.2491    -3.1456    -3.5099 H       
  38 H38            3.0820    -1.7337    -1.6119 H       
  39 H39            3.5178    -1.6353     0.1111 H       
  40 H40            5.1724    -2.9849    -1.1498 H       
  41 H41            3.6380    -3.7846    -2.9260 H       
  42 H42            4.4700    -5.1473    -2.1393 H       
  43 H43            2.0526    -5.6229    -2.4200 H       
  44 H44            1.5660    -6.1862    -0.0548 H       
  45 H45            3.2600    -6.5498    -0.4626 H       
  46 H46            3.1003    -5.3864     1.7214 H       
  47 H47            2.3078    -3.0378     1.7878 H       
  48 H48            1.0099    -4.1353     1.2594 H       
  49 H49            5.0818    -5.0093     0.2792 H       
  50 H50            4.6857    -3.5482     1.2154 H       
  51 H51            0.3981    -4.2733    -1.1591 H       
  52 H52            1.2601    -3.2742    -2.3536 H       
@<TRIPOS>BOND
   1    1    2 1
   2    1   26 1
   3    1   27 1
   4    2    3 2
   5    2    6 1
   6    3    4 1
   7    4    5 2
   8    4   16 1
   9    5    6 1
  10    5   28 1
  11    6    7 1
  12    7    8 1
  13    7   29 1
  14    7   30 1
  15    8    9 ar
  16    8   13 ar
  17    9   10 ar
  18    9   14 1
  19   10   11 ar
  20   10   31 1
  21   11   12 ar
  22   11   32 1
  23   12   13 ar
  24   12   33 1
  25   13   34 1
  26   14   15 1
  27   15   35 1
  28   15   36 1
  29   15   37 1
  30   16   17 1
  31   16   23 1
  32   16   25 1
  33   17   18 1
  34   17   38 1
  35   17   39 1
  36   18   19 1
  37   18   24 1
  38   18   40 1
  39   19   20 1
  40   19   41 1
  41   19   42 1
  42   20   21 1
  43   20   25 1
  44   20   43 1
  45   21   22 1
  46   21   44 1
  47   21   45 1
  48   22   23 1
  49   22   24 1
  50   22   46 1
  51   23   47 1
  52   23   48 1
  53   24   49 1
  54   24   50 1
  55   25   51 1
  56   25   52 1

#	End of record

