#	Name: ASD04550050
#	Creating user name:	WinNT
#	Creation time:	15. 06. 2019 20:49

#	Modifying user name:	WinNT
#	Modification time:	15. 06. 2019 20:49

#	Program:	/corina/corina34_cracker 3.40 0067  02.08.2006

@<TRIPOS>MOLECULE
ASD04550050
  36   37    0    0    0
SMALL
NO_CHARGES


@<TRIPOS>ATOM
   1 C1            -0.4252     1.5273     0.0898 C.ar    
   2 C2            -0.2231     0.1574    -0.0194 C.ar    
   3 C3             1.0641    -0.3416    -0.1732 C.ar    
   4 C4             2.1383     0.5253    -0.2170 C.ar    
   5 C5             1.9336     1.8885    -0.1075 C.ar    
   6 C6             0.6534     2.3886     0.0452 C.ar    
   7 C7             3.1083     2.8313    -0.1552 C.3     
   8 C8             2.9427     3.7933    -1.3334 C.3     
   9 N9            -1.3118    -0.7166     0.0257 N.am    
  10 S10           -1.4460    -1.9305    -1.0926 S.o2    
  11 C11           -1.6351    -1.1681    -2.6698 C.ar    
  12 O12           -0.1901    -2.5950    -1.1162 O.2     
  13 O13           -2.6718    -2.5949    -0.8185 O.2     
  14 C14           -2.7689    -0.4260    -2.9480 C.ar    
  15 C15           -2.9165     0.1728    -4.1867 C.ar    
  16 C16           -1.9313     0.0292    -5.1451 C.ar    
  17 C17           -0.7983    -0.7126    -4.8665 C.ar    
  18 C18           -0.6479    -1.3067    -3.6275 C.ar    
  19 Cl19          -4.0063    -0.2466    -1.7438 Cl      
  20 C20            3.1744     3.6169     1.1292 C.2     
  21 O21            2.3520     3.4303     1.9945 O.2     
  22 O22            4.1469     4.5239     1.3119 O.3     
  23 H23           -1.4252     1.9188     0.2050 H       
  24 H24            1.2248    -1.4062    -0.2580 H       
  25 H25            3.1394     0.1380    -0.3365 H       
  26 H26            0.4970     3.4538     0.1304 H       
  27 H27            4.0281     2.2598    -0.2793 H       
  28 H28            3.7923     4.4752    -1.3679 H       
  29 H29            2.8948     3.2251    -2.2624 H       
  30 H30            2.0228     4.3648    -1.2093 H       
  31 H31           -1.9892    -0.6124     0.7121 H       
  32 H32           -3.8016     0.7520    -4.4046 H       
  33 H33           -2.0466     0.4962    -6.1120 H       
  34 H34           -0.0288    -0.8249    -5.6159 H       
  35 H35            0.2375    -1.8858    -3.4103 H       
  36 H36            4.1482     5.0030     2.1518 H       
@<TRIPOS>BOND
   1    1    2 ar
   2    1    6 ar
   3    1   23 1
   4    2    3 ar
   5    2    9 1
   6    3    4 ar
   7    3   24 1
   8    4    5 ar
   9    4   25 1
  10    5    6 ar
  11    5    7 1
  12    6   26 1
  13    7    8 1
  14    7   20 1
  15    7   27 1
  16    8   28 1
  17    8   29 1
  18    8   30 1
  19    9   10 am
  20    9   31 1
  21   10   11 1
  22   10   12 2
  23   10   13 2
  24   11   14 ar
  25   11   18 ar
  26   14   15 ar
  27   14   19 1
  28   15   16 ar
  29   15   32 1
  30   16   17 ar
  31   16   33 1
  32   17   18 ar
  33   17   34 1
  34   18   35 1
  35   20   21 2
  36   20   22 1
  37   22   36 1

#	End of record

