#	Name: ASD01910538
#	Creating user name:	WinNT
#	Creation time:	15. 06. 2019 19:56

#	Modifying user name:	WinNT
#	Modification time:	15. 06. 2019 19:56

#	Program:	/corina/corina34_cracker 3.40 0067  02.08.2006

@<TRIPOS>MOLECULE
ASD01910538
  42   45    0    0    0
SMALL
NO_CHARGES


@<TRIPOS>ATOM
   1 N1             0.0326     1.0819     0.1142 N.2     
   2 C2             0.0364    -0.2176    -0.0534 C.2     
   3 N3             1.3309    -0.6036    -0.1436 N.2     
   4 C4             2.0344     0.4942    -0.0241 C.2     
   5 O5             1.1702     1.5021     0.1328 O.3     
   6 C6            -1.1491    -1.0966    -0.1289 C.2     
   7 C7            -2.4497    -0.6995    -0.0367 C.2     
   8 C8            -3.2466    -1.8477    -0.1600 C.2     
   9 C9            -2.4211    -2.9054    -0.3225 C.2     
  10 N10           -1.1363    -2.4567    -0.3102 N.pl3   
  11 C11            3.9598     1.5117    -1.2143 C.3     
  12 C12            3.5372     0.6015    -0.0568 C.3     
  13 C13            4.0357     1.1958     1.2624 C.3     
  14 C14            5.5639     1.2747     1.2431 C.3     
  15 C15            6.0095     2.1926     0.1004 C.3     
  16 N16            5.4143     1.7100    -1.1532 N.am    
  17 C17            6.1879     1.4537    -2.2266 C.2     
  18 C18            7.6285     1.7792    -2.1935 C.ar    
  19 O19            5.7003     0.9546    -3.2221 O.2     
  20 C20            8.5607     0.8883    -2.7298 C.ar    
  21 C21            9.9036     1.1972    -2.6967 C.ar    
  22 C22           10.3295     2.3899    -2.1322 C.ar    
  23 C23            9.4082     3.2778    -1.5979 C.ar    
  24 C24            8.0625     2.9814    -1.6310 C.ar    
  25 F25           11.6469     2.6878    -2.1024 F       
  26 H26           -2.8017     0.3116     0.1052 H       
  27 H27           -4.3257    -1.8805    -0.1300 H       
  28 H28           -2.7292    -3.9332    -0.4450 H       
  29 H29           -0.3436    -3.0072    -0.4074 H       
  30 H30            3.6942     1.0443    -2.1625 H       
  31 H31            3.4557     2.4741    -1.1251 H       
  32 H32            3.9702    -0.3891    -0.1962 H       
  33 H33            3.6220     2.1962     1.3893 H       
  34 H34            3.7152     0.5628     2.0899 H       
  35 H35            5.9195     1.6763     2.1921 H       
  36 H36            5.9778     0.2778     1.0915 H       
  37 H37            5.6726     3.2104     0.2968 H       
  38 H38            7.0963     2.1744     0.0197 H       
  39 H39            8.2300    -0.0411    -3.1694 H       
  40 H40           10.6254     0.5088    -3.1108 H       
  41 H41            9.7453     4.2052    -1.1591 H       
  42 H42            7.3457     3.6738    -1.2148 H       
@<TRIPOS>BOND
   1    1    2 2
   2    1    5 1
   3    2    3 1
   4    2    6 1
   5    3    4 2
   6    4    5 1
   7    4   12 1
   8    6    7 2
   9    6   10 1
  10    7    8 1
  11    7   26 1
  12    8    9 2
  13    8   27 1
  14    9   10 1
  15    9   28 1
  16   10   29 1
  17   11   12 1
  18   11   16 1
  19   11   30 1
  20   11   31 1
  21   12   13 1
  22   12   32 1
  23   13   14 1
  24   13   33 1
  25   13   34 1
  26   14   15 1
  27   14   35 1
  28   14   36 1
  29   15   16 1
  30   15   37 1
  31   15   38 1
  32   16   17 am
  33   17   18 1
  34   17   19 2
  35   18   20 ar
  36   18   24 ar
  37   20   21 ar
  38   20   39 1
  39   21   22 ar
  40   21   40 1
  41   22   23 ar
  42   22   25 1
  43   23   24 ar
  44   23   41 1
  45   24   42 1

#	End of record

