#	Name: ASD01708049
#	Creating user name:	WinNT
#	Creation time:	15. 06. 2019 19:22

#	Modifying user name:	WinNT
#	Modification time:	15. 06. 2019 19:22

#	Program:	/corina/corina34_cracker 3.40 0067  02.08.2006

@<TRIPOS>MOLECULE
ASD01708049
  64   66    0    0    0
SMALL
NO_CHARGES


@<TRIPOS>ATOM
   1 C1            -0.0162     1.3436     0.0094 C.2     
   2 N2            -0.0088    -0.0042     0.0040 N.am    
   3 O3             1.0334     1.9572     0.0192 O.2     
   4 C4             1.2468    -0.7628    -0.1211 C.3     
   5 C5            -1.2507    -0.7745     0.1287 C.3     
   6 C6            -1.0500    -1.9084     1.1035 C.ar    
   7 C7             0.1964    -2.2656     1.5706 C.ar    
   8 C8             1.4516    -1.5476     1.1736 C.3     
   9 C9            -2.1781    -2.6004     1.5279 C.ar    
  10 C10           -2.0687    -3.6522     2.4112 C.ar    
  11 C11           -0.8077    -4.0268     2.8838 C.ar    
  12 C12            0.3200    -3.3269     2.4575 C.ar    
  13 Cl13           1.8901    -3.7858     3.0389 Cl      
  14 Cl14          -3.4870    -4.5060     2.9338 Cl      
  15 C15           -0.6712    -5.1548     3.8273 C.2     
  16 N16           -0.7266    -4.9329     5.1555 N.am    
  17 O17           -0.5088    -6.2835     3.4058 O.2     
  18 C18           -0.5913    -6.0519     6.0913 C.3     
  19 C19           -1.9344    -6.7055     6.2905 C.2     
  20 O20           -2.9052    -6.2803     5.7103 O.2     
  21 O21           -2.0524    -7.7601     7.1125 O.3     
  22 C22           -1.2984     2.0746    -0.0027 C.ar    
  23 C23           -0.0721    -5.5338     7.4341 C.3     
  24 C24           -1.4174     3.2843     0.6942 C.ar    
  25 C25           -2.5977     3.9672     0.6891 C.ar    
  26 C26           -3.6927     3.4600    -0.0135 C.ar    
  27 C27           -3.5860     2.2463    -0.7179 C.ar    
  28 C28           -2.3827     1.5608    -0.7121 C.ar    
  29 C29           -5.0692     3.9163    -0.2274 C.2     
  30 C30           -5.6545     2.9910    -1.0033 C.2     
  31 O31           -4.7836     2.0098    -1.2917 O.3     
  32 N32            1.1784    -4.7925     7.2225 N.3     
  33 C33            1.7074    -4.2790     8.4931 C.3     
  34 N34            2.3040    -5.3828     9.2570 N.3     
  35 N35            2.7317    -3.2616     8.2216 N.3     
  36 H36            1.1793    -1.4516    -0.9632 H       
  37 H37            2.0795    -0.0757    -0.2716 H       
  38 H38           -2.0469    -0.1231     0.4890 H       
  39 H39           -1.5263    -1.1782    -0.8456 H       
  40 H40            2.2485    -2.2758     1.0225 H       
  41 H41            1.7398    -0.8622     1.9706 H       
  42 H42           -3.1517    -2.3102     1.1614 H       
  43 H43           -0.8562    -4.0324     5.4918 H       
  44 H44            0.1111    -6.7808     5.6870 H       
  45 H45           -2.9340    -8.1457     7.2082 H       
  46 H46           -0.8151    -4.8729     7.8804 H       
  47 H47            0.1130    -6.3756     8.1013 H       
  48 H48           -0.5710     3.6772     1.2378 H       
  49 H49           -2.6855     4.8989     1.2281 H       
  50 H50           -2.2870     0.6284    -1.2487 H       
  51 H51           -5.5216     4.8165     0.1617 H       
  52 H52           -6.6780     3.0295    -1.3460 H       
  53 H53            1.8626    -5.3648     6.7509 H       
  54 H54            0.8972    -3.8337     9.0705 H       
  55 H55            1.6056    -6.0650     9.5120 H       
  56 H56            3.0582    -5.8124     8.7426 H       
  57 H57            2.3626    -2.5225     7.6423 H       
  58 H58            3.1114    -2.8926     9.0805 H       
  59 C59            8.6386    12.5067    15.3950 C.3     
  60 C60            8.6586    11.0348    15.3869 C.1     
  61 N61            8.6740     9.8989    15.3807 N.1     
  62 H62            9.6612    12.8839    15.3873 H       
  63 H63            8.1114    12.8677    14.5120 H       
  64 H64            8.1284    12.8582    16.2918 H       
@<TRIPOS>BOND
   1    1    2 am
   2    1    3 2
   3    1   22 1
   4    2    4 1
   5    2    5 1
   6    4    8 1
   7    4   36 1
   8    4   37 1
   9    5    6 1
  10    5   38 1
  11    5   39 1
  12    6    7 ar
  13    6    9 ar
  14    7    8 1
  15    7   12 ar
  16    8   40 1
  17    8   41 1
  18    9   10 ar
  19    9   42 1
  20   10   11 ar
  21   10   14 1
  22   11   12 ar
  23   11   15 1
  24   12   13 1
  25   15   16 am
  26   15   17 2
  27   16   18 1
  28   16   43 1
  29   18   19 1
  30   18   23 1
  31   18   44 1
  32   19   20 2
  33   19   21 1
  34   21   45 1
  35   22   24 ar
  36   22   28 ar
  37   23   32 1
  38   23   46 1
  39   23   47 1
  40   24   25 ar
  41   24   48 1
  42   25   26 ar
  43   25   49 1
  44   26   27 ar
  45   26   29 1
  46   27   28 ar
  47   27   31 1
  48   28   50 1
  49   29   30 2
  50   29   51 1
  51   30   31 1
  52   30   52 1
  53   32   33 1
  54   32   53 1
  55   33   34 1
  56   33   35 1
  57   33   54 1
  58   34   55 1
  59   34   56 1
  60   35   57 1
  61   35   58 1
  62   59   60 1
  63   59   62 1
  64   59   63 1
  65   59   64 1
  66   60   61 3

#	End of record

