#	Name: ASD02560508
#	Creating user name:	WinNT
#	Creation time:	15. 06. 2019 20:25

#	Modifying user name:	WinNT
#	Modification time:	15. 06. 2019 20:25

#	Program:	/corina/corina34_cracker 3.40 0067  02.08.2006

@<TRIPOS>MOLECULE
ASD02560508
  42   44    0    0    0
SMALL
NO_CHARGES


@<TRIPOS>ATOM
   1 C1             0.4144    -3.7137     3.0145 C.2     
   2 C2             1.2527    -4.3251     2.0651 C.2     
   3 C3             2.2000    -3.6068     1.4294 C.2     
   4 N4             2.3602    -2.2745     1.6977 N.pl3   
   5 C5             1.5544    -1.6494     2.6213 C.2     
   6 C6             0.5603    -2.3909     3.2922 C.2     
   7 C7             3.2203    -1.3282     1.2112 C.2     
   8 C8             2.9263    -0.1616     1.8387 C.2     
   9 N9             1.9153    -0.3776     2.6879 N.2     
  10 C10            3.6223     1.1565     1.6167 C.3     
  11 N11            4.2169    -1.5264     0.2475 N.3     
  12 C12            5.5448    -1.2114     0.7910 C.3     
  13 C13            2.5886     2.2241     1.2528 C.3     
  14 C14            6.1388    -2.4510     1.4826 C.3     
  15 C15            4.3530     1.5692     2.8960 C.3     
  16 C16            7.4443    -2.7902     0.7338 C.3     
  17 C17            7.8659    -1.4511     0.0796 C.3     
  18 C18            6.5100    -0.8407    -0.3539 C.3     
  19 C19            3.0906    -4.2770     0.4151 C.3     
  20 H20           -0.3458    -4.2923     3.5182 H       
  21 H21            1.1371    -5.3760     1.8443 H       
  22 H22           -0.0793    -1.9125     4.0192 H       
  23 H23            4.3416     1.0552     0.8040 H       
  24 H24            4.1881    -2.4680    -0.1140 H       
  25 H25            5.4717    -0.3871     1.5004 H       
  26 H26            3.0920     3.1775     1.0922 H       
  27 H27            2.0680     1.9301     0.3414 H       
  28 H28            1.8693     2.3254     2.0655 H       
  29 H29            6.3548    -2.2280     2.5274 H       
  30 H30            5.4418    -3.2863     1.4150 H       
  31 H31            5.0894     0.8086     3.1553 H       
  32 H32            4.8564     2.5226     2.7354 H       
  33 H33            3.6337     1.6705     3.7087 H       
  34 H34            8.2080    -3.1302     1.4333 H       
  35 H35            7.2608    -3.5465    -0.0293 H       
  36 H36            8.3652    -0.8076     0.8040 H       
  37 H37            8.5042    -1.6281    -0.7860 H       
  38 H38            6.1756    -1.2821    -1.2928 H       
  39 H39            6.5918     0.2422    -0.4482 H       
  40 H40            2.8072    -5.3251     0.3190 H       
  41 H41            2.9804    -3.7809    -0.5492 H       
  42 H42            4.1283    -4.2096     0.7419 H       
@<TRIPOS>BOND
   1    1    2 1
   2    1    6 2
   3    1   20 1
   4    2    3 2
   5    2   21 1
   6    3    4 1
   7    3   19 1
   8    4    5 1
   9    4    7 1
  10    5    6 1
  11    5    9 2
  12    6   22 1
  13    7    8 2
  14    7   11 1
  15    8    9 1
  16    8   10 1
  17   10   13 1
  18   10   15 1
  19   10   23 1
  20   11   12 1
  21   11   24 1
  22   12   14 1
  23   12   18 1
  24   12   25 1
  25   13   26 1
  26   13   27 1
  27   13   28 1
  28   14   16 1
  29   14   29 1
  30   14   30 1
  31   15   31 1
  32   15   32 1
  33   15   33 1
  34   16   17 1
  35   16   34 1
  36   16   35 1
  37   17   18 1
  38   17   36 1
  39   17   37 1
  40   18   38 1
  41   18   39 1
  42   19   40 1
  43   19   41 1
  44   19   42 1

#	End of record

