#	Name: ASD01884377
#	Creating user name:	WinNT
#	Creation time:	15. 06. 2019 19:48

#	Modifying user name:	WinNT
#	Modification time:	15. 06. 2019 19:48

#	Program:	/corina/corina34_cracker 3.40 0067  02.08.2006

@<TRIPOS>MOLECULE
ASD01884377
  63   65    0    0    0
SMALL
NO_CHARGES


@<TRIPOS>ATOM
   1 C1            -0.0168     1.3884     0.0097 C.2     
   2 C2             0.0021    -0.0041     0.0020 C.2     
   3 C3            -1.2095    -0.6965     0.0104 C.2     
   4 C4            -2.3831    -0.0157     0.0252 C.2     
   5 N5            -2.4093     1.3392     0.0327 N.am    
   6 C6            -1.2693     2.0558     0.0312 C.2     
   7 O7            -1.3129     3.2741     0.0380 O.2     
   8 C8            -3.6983     2.0352     0.0483 C.3     
   9 C9             1.2059     2.1337     0.0020 C.1     
  10 N10            2.1759     2.7249    -0.0041 N.1     
  11 N11            1.6901    -1.1066     1.3585 N.3     
  12 C12            2.8290    -2.0352     1.3670 C.3     
  13 C13            3.2431    -2.3172     2.8131 C.3     
  14 N14            2.1012    -2.8822     3.5456 N.3     
  15 C15            0.9623    -1.9536     3.5371 C.3     
  16 C16            0.5482    -1.6716     2.0910 C.3     
  17 O17            2.4792    -3.2358     4.9140 O.3     
  18 C18           -4.1338     2.2698     1.4962 C.3     
  19 C19            1.3105    -0.7515    -0.0155 C.3     
  20 C20           -5.4800     2.9967     1.5124 C.3     
  21 C21           -5.9753     3.1206     2.9547 C.3     
  22 C22           -5.3132     4.3926     0.9087 C.3     
  23 C23            1.7318    -2.5485     5.9195 C.3     
  24 C24            2.2018    -2.9871     7.2825 C.ar    
  25 C25            3.2300    -2.3080     7.9096 C.ar    
  26 C26            3.6626    -2.7080     9.1590 C.ar    
  27 C27            3.0644    -3.7922     9.7846 C.ar    
  28 C28            2.0329    -4.4719     9.1534 C.ar    
  29 C29            1.6001    -4.0644     7.9063 C.ar    
  30 O30            3.4885    -4.1880    11.0136 O.3     
  31 C31            2.8268    -5.3120    11.5974 C.3     
  32 F32            2.9836    -6.4278    10.7683 F       
  33 F33            3.3840    -5.5813    12.8521 F       
  34 F34            1.4649    -5.0272    11.7434 F       
  35 H35           -1.2130    -1.7765     0.0046 H       
  36 H36           -3.3137    -0.5638     0.0308 H       
  37 H37           -3.5999     2.9937    -0.4613 H       
  38 H38           -4.4456     1.4275    -0.4619 H       
  39 H39            2.5411    -2.9683     0.8826 H       
  40 H40            3.6659    -1.5892     0.8295 H       
  41 H41            4.0692    -3.0283     2.8228 H       
  42 H42            3.5569    -1.3883     3.2893 H       
  43 H43            0.1254    -2.3996     4.0746 H       
  44 H44            1.2502    -1.0205     4.0215 H       
  45 H45           -0.2779    -0.9605     2.0813 H       
  46 H46            0.2344    -2.6005     1.6148 H       
  47 H47           -4.2323     1.3113     2.0058 H       
  48 H48           -3.3866     2.8775     2.0064 H       
  49 H49            1.2023    -1.6595    -0.6087 H       
  50 H50            2.0835    -0.1207    -0.4544 H       
  51 H51           -6.2051     2.4317     0.9266 H       
  52 H52           -5.2502     3.6856     3.5406 H       
  53 H53           -6.9344     3.6385     2.9663 H       
  54 H54           -6.0942     2.1261     3.3848 H       
  55 H55           -6.2723     4.9105     0.9203 H       
  56 H56           -4.5881     4.9575     1.4946 H       
  57 H57           -4.9604     4.3043    -0.1188 H       
  58 H58            1.8808    -1.4741     5.8121 H       
  59 H59            0.6729    -2.7814     5.8079 H       
  60 H60            3.6956    -1.4642     7.4220 H       
  61 H61            4.4661    -2.1775     9.6483 H       
  62 H62            1.5656    -5.3162     9.6383 H       
  63 H63            0.7971    -4.5932     7.4145 H       
@<TRIPOS>BOND
   1    1    2 2
   2    1    9 1
   3    1    6 1
   4    2    3 1
   5    2   19 1
   6    3    4 2
   7    3   35 1
   8    4    5 1
   9    4   36 1
  10    5    6 am
  11    5    8 1
  12    6    7 2
  13    8   18 1
  14    8   37 1
  15    8   38 1
  16    9   10 3
  17   11   12 1
  18   11   16 1
  19   11   19 1
  20   12   13 1
  21   12   39 1
  22   12   40 1
  23   13   14 1
  24   13   41 1
  25   13   42 1
  26   14   15 1
  27   14   17 1
  28   15   16 1
  29   15   43 1
  30   15   44 1
  31   16   45 1
  32   16   46 1
  33   17   23 1
  34   18   20 1
  35   18   47 1
  36   18   48 1
  37   19   49 1
  38   19   50 1
  39   20   21 1
  40   20   22 1
  41   20   51 1
  42   21   52 1
  43   21   53 1
  44   21   54 1
  45   22   55 1
  46   22   56 1
  47   22   57 1
  48   23   24 1
  49   23   58 1
  50   23   59 1
  51   24   25 ar
  52   24   29 ar
  53   25   26 ar
  54   25   60 1
  55   26   27 ar
  56   26   61 1
  57   27   28 ar
  58   27   30 1
  59   28   29 ar
  60   28   62 1
  61   29   63 1
  62   30   31 1
  63   31   32 1
  64   31   33 1
  65   31   34 1

#	End of record

