#	Name: ASD03091093
#	Creating user name:	WinNT
#	Creation time:	15. 06. 2019 20:30

#	Modifying user name:	WinNT
#	Modification time:	15. 06. 2019 20:30

#	Program:	/corina/corina34_cracker 3.40 0067  02.08.2006

@<TRIPOS>MOLECULE
ASD03091093
  64   68    0    0    0
SMALL
NO_CHARGES


@<TRIPOS>ATOM
   1 C1            -0.3062     1.4719     0.0321 C.3     
   2 N2            -0.2529     0.0080     0.0194 N.am    
   3 C3            -0.0833    -0.6770     1.1925 C.2     
   4 N4            -0.0270    -1.9824     1.2550 N.2     
   5 C5            -0.1340    -2.7499     0.1513 C.ar    
   6 C6            -0.3116    -2.1279    -1.1056 C.ar    
   7 C7            -0.3771    -0.6596    -1.1514 C.2     
   8 C8             0.0425     0.0939     2.4461 C.ar    
   9 O9            -0.5291    -0.0666    -2.2036 O.2     
  10 C10           -0.0727    -4.1451     0.2243 C.ar    
  11 C11           -0.1841    -4.8920    -0.9129 C.ar    
  12 C12           -0.3591    -4.2830    -2.1557 C.ar    
  13 C13           -0.4243    -2.9036    -2.2572 C.ar    
  14 N14           -0.4697    -5.0700    -3.3054 N.3     
  15 C15            0.1807    -4.4210    -4.4524 C.3     
  16 C16            0.8828    -5.4553    -5.3195 C.3     
  17 C17           -0.0712    -6.3021    -6.1375 C.3     
  18 N18           -1.4620    -5.8518    -5.9838 N.3     
  19 C19           -2.0257    -6.3786    -4.7316 C.3     
  20 C20           -1.8753    -5.3660    -3.6069 C.3     
  21 C21           -1.6227    -4.4316    -6.2110 C.3     
  22 C22           -0.8466    -3.5963    -5.2060 C.3     
  23 C23            1.0630     2.0271    -0.2648 C.2     
  24 N24            1.2552     3.3605    -0.3054 N.am    
  25 C25            2.5862     3.9002    -0.5940 C.3     
  26 C26           -0.9888     0.9454     2.8537 C.ar    
  27 C27           -0.8628     1.6635     4.0286 C.ar    
  28 C28            0.2793     1.5405     4.7977 C.ar    
  29 C29            1.3037     0.6992     4.3986 C.ar    
  30 C30            1.1896    -0.0283     3.2329 C.ar    
  31 F31           -2.1047     1.0665     2.1018 F       
  32 O32            1.9919     1.2741    -0.4671 O.2     
  33 C33            2.7899     3.9723    -2.1087 C.3     
  34 C34            2.7085     5.3030     0.0044 C.3     
  35 H35           -1.0101     1.8165    -0.7255 H       
  36 H36           -0.6324     1.8151     1.0139 H       
  37 H37            0.0631    -4.6310     1.1792 H       
  38 H38           -0.1359    -5.9691    -0.8496 H       
  39 H39           -0.5597    -2.4336    -3.2201 H       
  40 H40            0.9344    -3.7337    -4.0681 H       
  41 H41            1.5619    -4.9393    -5.9983 H       
  42 H42            1.4685    -6.1115    -4.6757 H       
  43 H43            0.2091    -6.2392    -7.1889 H       
  44 H44            0.0050    -7.3395    -5.8117 H       
  45 H45           -3.0832    -6.5980    -4.8781 H       
  46 H46           -1.5034    -7.2962    -4.4607 H       
  47 H47           -2.3532    -5.7607    -2.7103 H       
  48 H48           -2.3768    -4.4420    -3.8945 H       
  49 H49           -1.2724    -4.1924    -7.2150 H       
  50 H50           -2.6806    -4.1795    -6.1382 H       
  51 H51           -1.5457    -3.1621    -4.4913 H       
  52 H52           -0.3361    -2.7909    -5.7340 H       
  53 H53            0.5123     3.9628    -0.1436 H       
  54 H54            3.3444     3.2510    -0.1560 H       
  55 H55           -1.6580     2.3219     4.3458 H       
  56 H56            0.3730     2.1038     5.7144 H       
  57 H57            2.1930     0.6088     5.0047 H       
  58 H58            1.9901    -0.6842     2.9240 H       
  59 H59            3.7802     4.3739    -2.3234 H       
  60 H60            2.7028     2.9729    -2.5350 H       
  61 H61            2.0318     4.6215    -2.5467 H       
  62 H62            2.5634     5.2516     1.0835 H       
  63 H63            3.6988     5.7046    -0.2103 H       
  64 H64            1.9504     5.9522    -0.4337 H       
@<TRIPOS>BOND
   1    1    2 1
   2    1   23 1
   3    1   35 1
   4    1   36 1
   5    2    3 1
   6    2    7 am
   7    3    4 2
   8    3    8 1
   9    4    5 1
  10    5    6 ar
  11    5   10 ar
  12    6    7 1
  13    6   13 ar
  14    7    9 2
  15    8   26 ar
  16    8   30 ar
  17   10   11 ar
  18   10   37 1
  19   11   12 ar
  20   11   38 1
  21   12   13 ar
  22   12   14 1
  23   13   39 1
  24   14   15 1
  25   14   20 1
  26   15   16 1
  27   15   22 1
  28   15   40 1
  29   16   17 1
  30   16   41 1
  31   16   42 1
  32   17   18 1
  33   17   43 1
  34   17   44 1
  35   18   19 1
  36   18   21 1
  37   19   20 1
  38   19   45 1
  39   19   46 1
  40   20   47 1
  41   20   48 1
  42   21   22 1
  43   21   49 1
  44   21   50 1
  45   22   51 1
  46   22   52 1
  47   23   24 am
  48   23   32 2
  49   24   25 1
  50   24   53 1
  51   25   33 1
  52   25   34 1
  53   25   54 1
  54   26   27 ar
  55   26   31 1
  56   27   28 ar
  57   27   55 1
  58   28   29 ar
  59   28   56 1
  60   29   30 ar
  61   29   57 1
  62   30   58 1
  63   33   59 1
  64   33   60 1
  65   33   61 1
  66   34   62 1
  67   34   63 1
  68   34   64 1

#	End of record

