#	Name: ASD04880389
#	Creating user name:	WinNT
#	Creation time:	15. 06. 2019 20:53

#	Modifying user name:	WinNT
#	Modification time:	15. 06. 2019 20:53

#	Program:	/corina/corina34_cracker 3.40 0067  02.08.2006

@<TRIPOS>MOLECULE
ASD04880389
  36   38    0    0    0
SMALL
NO_CHARGES


@<TRIPOS>ATOM
   1 C1            -0.0215     1.2977    -0.4417 C.ar    
   2 C2             0.0184    -0.0846    -0.4642 C.ar    
   3 C3             1.2269    -0.7451    -0.3797 C.ar    
   4 C4             2.4122    -0.0160    -0.2712 C.ar    
   5 C5             2.3673     1.3791    -0.2490 C.ar    
   6 C6             1.1510     2.0289    -0.3343 C.ar    
   7 C7             3.7095    -0.7181    -0.1799 C.2     
   8 O8             3.7392    -1.9292    -0.0753 O.2     
   9 N9             4.8595    -0.0161    -0.2126 N.am    
  10 C10            6.2078    -0.5724    -0.0173 C.3     
  11 N11            4.9664     1.3540    -0.4427 N.2     
  12 C12            6.1758     1.7976    -0.4265 C.2     
  13 C13            7.1293     0.6555    -0.1571 C.3     
  14 F14            1.1045     3.3789    -0.3130 F       
  15 C15            6.5698     3.2024    -0.6414 C.ar    
  16 C16            7.1642     3.9303     0.3919 C.ar    
  17 C17            7.5307     5.2439     0.1836 C.ar    
  18 C18            7.3107     5.8403    -1.0452 C.ar    
  19 C19            6.7218     5.1253    -2.0734 C.ar    
  20 C20            6.3556     3.8097    -1.8813 C.ar    
  21 C21            7.4043     3.2825     1.7312 C.3     
  22 H22           -0.9699     1.8095    -0.5127 H       
  23 H23           -0.8989    -0.6486    -0.5478 H       
  24 H24            1.2556    -1.8245    -0.3971 H       
  25 H25            3.2809     1.9490    -0.1649 H       
  26 H26            6.3015    -1.0112     0.9761 H       
  27 H27            6.4332    -1.3108    -0.7867 H       
  28 H28            7.6806     0.8277     0.7673 H       
  29 H29            7.8153     0.5247    -0.9939 H       
  30 H30            7.9901     5.8081     0.9817 H       
  31 H31            7.5996     6.8690    -1.2027 H       
  32 H32            6.5524     5.5975    -3.0298 H       
  33 H33            5.8960     3.2529    -2.6845 H       
  34 H34            8.4214     2.8925     1.7691 H       
  35 H35            7.2685     4.0208     2.5215 H       
  36 H36            6.6964     2.4656     1.8717 H       
@<TRIPOS>BOND
   1    1    2 ar
   2    1    6 ar
   3    1   22 1
   4    2    3 ar
   5    2   23 1
   6    3    4 ar
   7    3   24 1
   8    4    5 ar
   9    4    7 1
  10    5    6 ar
  11    5   25 1
  12    6   14 1
  13    7    8 2
  14    7    9 am
  15    9   10 1
  16    9   11 1
  17   10   13 1
  18   10   26 1
  19   10   27 1
  20   11   12 2
  21   12   13 1
  22   12   15 1
  23   13   28 1
  24   13   29 1
  25   15   16 ar
  26   15   20 ar
  27   16   17 ar
  28   16   21 1
  29   17   18 ar
  30   17   30 1
  31   18   19 ar
  32   18   31 1
  33   19   20 ar
  34   19   32 1
  35   20   33 1
  36   21   34 1
  37   21   35 1
  38   21   36 1

#	End of record

