#	Name: ASD01916009
#	Creating user name:	WinNT
#	Creation time:	15. 06. 2019 20:06

#	Modifying user name:	WinNT
#	Modification time:	15. 06. 2019 20:06

#	Program:	/corina/corina34_cracker 3.40 0067  02.08.2006

@<TRIPOS>MOLECULE
ASD01916009
  41   43    0    0    0
SMALL
NO_CHARGES


@<TRIPOS>ATOM
   1 C1            -0.0246     1.4107    -0.0929 C.ar    
   2 C2            -0.0007     0.0090    -0.0582 C.ar    
   3 C3            -1.2046    -0.6667    -0.0212 C.ar    
   4 C4            -2.3953     0.0616    -0.0197 C.ar    
   5 C5            -3.6885    -0.6549     0.0202 C.2     
   6 N6            -4.8381     0.0363     0.1509 N.am    
   7 O7            -3.7146    -1.8672    -0.0648 O.2     
   8 C8            -6.1247    -0.6591     0.0654 C.3     
   9 C9             1.1968     2.1572    -0.1319 C.1     
  10 C10            2.1981     2.7693    -0.1638 C.1     
  11 C11            3.4195     3.5159    -0.2028 C.ar    
  12 C12            3.3873     4.9130    -0.2373 C.ar    
  13 C13            5.8213     3.5750    -0.2384 C.ar    
  14 C14            4.5665     5.6259    -0.2748 C.ar    
  15 N15           -2.3828     1.3899    -0.0532 N.ar    
  16 C16           -1.2613     2.0702    -0.0948 C.ar    
  17 C17            4.6490     2.8507    -0.2007 C.ar    
  18 C18            5.7825     4.9602    -0.2787 C.ar    
  19 C19           -7.3444     0.2664     0.2344 C.3     
  20 O20           -7.9132    -0.4697    -0.8672 O.3     
  21 C21           -6.6245    -0.8677    -1.3766 C.3     
  22 C22           -4.8011     1.4830     0.3783 C.3     
  23 C23           -6.1814    -1.9199     0.9303 C.3     
  24 F24            6.9348     5.6646    -0.3151 F       
  25 H25            0.9359    -0.5287    -0.0606 H       
  26 H26           -1.2245    -1.7462     0.0058 H       
  27 H27            2.4406     5.4327    -0.2350 H       
  28 H28            6.7717     3.0622    -0.2417 H       
  29 H29            4.5430     6.7054    -0.3014 H       
  30 H30           -1.2915     3.1495    -0.1208 H       
  31 H31            4.6805     1.7716    -0.1693 H       
  32 H32           -7.8747     0.1295     1.1768 H       
  33 H33           -7.1392     1.3124     0.0067 H       
  34 H34           -6.1994    -0.1680    -2.0962 H       
  35 H35           -6.5837    -1.9041    -1.7118 H       
  36 H36           -4.7089     1.9989    -0.5774 H       
  37 H37           -5.7203     1.7967     0.8732 H       
  38 H38           -3.9467     1.7300     1.0085 H       
  39 H39           -6.0186    -1.6521     1.9742 H       
  40 H40           -7.1592    -2.3898     0.8240 H       
  41 H41           -5.4068    -2.6162     0.6088 H       
@<TRIPOS>BOND
   1    1    2 ar
   2    1    9 1
   3    1   16 ar
   4    2    3 ar
   5    2   25 1
   6    3    4 ar
   7    3   26 1
   8    4   15 ar
   9    4    5 1
  10    5    6 am
  11    5    7 2
  12    6    8 1
  13    6   22 1
  14    8   19 1
  15    8   23 1
  16    8   21 1
  17    9   10 3
  18   10   11 1
  19   11   12 ar
  20   11   17 ar
  21   12   14 ar
  22   12   27 1
  23   13   18 ar
  24   13   17 ar
  25   13   28 1
  26   14   18 ar
  27   14   29 1
  28   15   16 ar
  29   16   30 1
  30   17   31 1
  31   18   24 1
  32   19   20 1
  33   19   32 1
  34   19   33 1
  35   20   21 1
  36   21   34 1
  37   21   35 1
  38   22   36 1
  39   22   37 1
  40   22   38 1
  41   23   39 1
  42   23   40 1
  43   23   41 1

#	End of record

