#	Name: ASD04560206
#	Creating user name:	WinNT
#	Creation time:	15. 06. 2019 20:49

#	Modifying user name:	WinNT
#	Modification time:	15. 06. 2019 20:49

#	Program:	/corina/corina34_cracker 3.40 0067  02.08.2006

@<TRIPOS>MOLECULE
ASD04560206
  36   38    0    0    0
SMALL
NO_CHARGES


@<TRIPOS>ATOM
   1 C1            -0.0205     1.3839     0.1425 C.ar    
   2 C2            -0.0039     0.0066     0.1484 C.ar    
   3 C3             1.2053    -0.6721     0.1221 C.ar    
   4 C4             2.3920     0.0160     0.0901 C.ar    
   5 C5             1.1740     2.0986     0.1102 C.ar    
   6 S6             1.4893     3.8320     0.0940 S.3     
   7 C7             2.4002     1.4267     0.0834 C.ar    
   8 N8             3.4557     2.2641     0.0544 N.2     
   9 C9             3.2208     3.5305     0.0531 C.2     
  10 N10            4.1943     4.5151     0.0236 N.am    
  11 C11            5.4977     4.1735    -0.0065 C.2     
  12 N12            6.4450     5.1317    -0.0351 N.am    
  13 O13            5.8188     3.0009    -0.0079 O.2     
  14 C14            7.7975     4.7818     0.0557 C.ar    
  15 C15            8.7562     5.5243    -0.6236 C.ar    
  16 C16            8.1846     3.6960     0.8290 C.ar    
  17 C17            9.5201     3.3531     0.9167 C.ar    
  18 C18           10.4712     4.0898     0.2355 C.ar    
  19 C19           10.0902     5.1759    -0.5315 C.ar    
  20 C20            9.9408     2.1746     1.7565 C.3     
  21 F21            9.9360     1.0169     0.9712 F       
  22 F22           11.2291     2.3940     2.2559 F       
  23 F23            9.0479     2.0190     2.8222 F       
  24 C24           -1.2993    -0.7626     0.1839 C.3     
  25 Cl25           8.2783     6.8872    -1.5868 Cl      
  26 F26           -1.7327    -1.0067    -1.1237 F       
  27 F27           -1.1009    -1.9799     0.8442 F       
  28 F28           -2.2669    -0.0154     0.8640 F       
  29 H29           -0.9630     1.9110     0.1585 H       
  30 H30            1.2129    -1.7521     0.1272 H       
  31 H31            3.3260    -0.5260     0.0702 H       
  32 H32            3.9381     5.4507     0.0247 H       
  33 H33            6.1898     6.0637    -0.1187 H       
  34 H34            7.4426     3.1200     1.3619 H       
  35 H35           11.5144     3.8194     0.3059 H       
  36 H36           10.8360     5.7519    -1.0592 H       
@<TRIPOS>BOND
   1    1    2 ar
   2    1    5 ar
   3    1   29 1
   4    2    3 ar
   5    2   24 1
   6    3    4 ar
   7    3   30 1
   8    4    7 ar
   9    4   31 1
  10    5    7 ar
  11    5    6 1
  12    6    9 1
  13    7    8 1
  14    8    9 2
  15    9   10 1
  16   10   11 am
  17   10   32 1
  18   11   12 am
  19   11   13 2
  20   12   14 1
  21   12   33 1
  22   14   16 ar
  23   14   15 ar
  24   15   19 ar
  25   15   25 1
  26   16   17 ar
  27   16   34 1
  28   17   18 ar
  29   17   20 1
  30   18   19 ar
  31   18   35 1
  32   19   36 1
  33   20   21 1
  34   20   22 1
  35   20   23 1
  36   24   26 1
  37   24   27 1
  38   24   28 1

#	End of record

