#	Name: ASD04880220
#	Creating user name:	WinNT
#	Creation time:	15. 06. 2019 20:53

#	Modifying user name:	WinNT
#	Modification time:	15. 06. 2019 20:53

#	Program:	/corina/corina34_cracker 3.40 0067  02.08.2006

@<TRIPOS>MOLECULE
ASD04880220
  46   49    0    0    0
SMALL
NO_CHARGES


@<TRIPOS>ATOM
   1 C1            -0.0284     1.4063    -0.1999 C.ar    
   2 C2            -0.0049     0.0076    -0.1780 C.ar    
   3 C3             1.2171    -0.6725    -0.2192 C.ar    
   4 C4             2.3870     0.0288    -0.2812 C.ar    
   5 C5             2.3638     1.4279    -0.3036 C.ar    
   6 C6             1.1414     2.1080    -0.2618 C.ar    
   7 C7            -1.2666    -0.7489    -0.1111 C.2     
   8 N8            -2.4453    -0.2279    -0.0691 N.2     
   9 N9            -3.4780    -1.1615    -0.0099 N.am    
  10 C10           -2.8980    -2.5138    -0.0128 C.3     
  11 C11           -1.3799    -2.2565    -0.0875 C.3     
  12 C12           -4.7935    -0.8729     0.0420 C.2     
  13 C13           -5.2378     0.5314     0.1654 C.ar    
  14 O14           -5.6149    -1.7678    -0.0127 O.2     
  15 C15           -4.3031     1.5437     0.3718 C.ar    
  16 C16           -4.7307     2.8654     0.4871 C.ar    
  17 C17           -6.0921     3.1662     0.3951 C.ar    
  18 C18           -7.0129     2.1575     0.1909 C.ar    
  19 C19           -6.5955     0.8472     0.0696 C.ar    
  20 C20            3.5907     2.1635    -0.3681 C.1     
  21 C21            4.5965     2.7666    -0.4211 C.1     
  22 C22            5.8234     3.5023    -0.4857 C.ar    
  23 C23            5.8041     4.8996    -0.5082 C.ar    
  24 C24            6.9897     5.6013    -0.5700 C.ar    
  25 C25            8.1965     4.9252    -0.6101 C.ar    
  26 C26            8.2236     3.5418    -0.5886 C.ar    
  27 C27            7.0464     2.8266    -0.5206 C.ar    
  28 C28           -3.7772     3.9123     0.6998 C.1     
  29 N29           -3.0207     4.7428     0.8686 N.1     
  30 H30           -0.9719     1.9311    -0.1722 H       
  31 H31            1.2350    -1.7522    -0.2015 H       
  32 H32            3.3303    -0.4962    -0.3126 H       
  33 H33            1.1232     3.1877    -0.2795 H       
  34 H34           -3.1558    -3.0437     0.9041 H       
  35 H35           -3.2323    -3.0727    -0.8869 H       
  36 H36           -0.9629    -2.6904    -0.9963 H       
  37 H37           -0.8801    -2.6588     0.7936 H       
  38 H38           -3.2521     1.3055     0.4425 H       
  39 H39           -6.4249     4.1897     0.4842 H       
  40 H40           -8.0640     2.3955     0.1209 H       
  41 H41           -7.3210     0.0633    -0.0903 H       
  42 H42            4.8630     5.4286    -0.4776 H       
  43 H43            6.9764     6.6810    -0.5874 H       
  44 H44            9.1219     5.4800    -0.6588 H       
  45 H45            9.1692     3.0209    -0.6209 H       
  46 H46            7.0691     1.7469    -0.5039 H       
@<TRIPOS>BOND
   1    1    2 ar
   2    1    6 ar
   3    1   30 1
   4    2    3 ar
   5    2    7 1
   6    3    4 ar
   7    3   31 1
   8    4    5 ar
   9    4   32 1
  10    5    6 ar
  11    5   20 1
  12    6   33 1
  13    7    8 2
  14    7   11 1
  15    8    9 1
  16    9   10 1
  17    9   12 am
  18   10   11 1
  19   10   34 1
  20   10   35 1
  21   11   36 1
  22   11   37 1
  23   12   13 1
  24   12   14 2
  25   13   15 ar
  26   13   19 ar
  27   15   16 ar
  28   15   38 1
  29   16   17 ar
  30   16   28 1
  31   17   18 ar
  32   17   39 1
  33   18   19 ar
  34   18   40 1
  35   19   41 1
  36   20   21 3
  37   21   22 1
  38   22   23 ar
  39   22   27 ar
  40   23   24 ar
  41   23   42 1
  42   24   25 ar
  43   24   43 1
  44   25   26 ar
  45   25   44 1
  46   26   27 ar
  47   26   45 1
  48   27   46 1
  49   28   29 3

#	End of record

