#	Name: ASD01815725
#	Creating user name:	WinNT
#	Creation time:	15. 06. 2019 19:33

#	Modifying user name:	WinNT
#	Modification time:	15. 06. 2019 19:33

#	Program:	/corina/corina34_cracker 3.40 0067  02.08.2006

@<TRIPOS>MOLECULE
ASD01815725
  59   64    0    0    0
SMALL
NO_CHARGES


@<TRIPOS>ATOM
   1 C1            -0.0168     1.3869     0.0097 C.ar    
   2 C2             0.0021    -0.0041     0.0020 C.ar    
   3 C3             1.1801    -0.6897    -0.0129 C.ar    
   4 C4             2.3948     0.0129    -0.0207 C.ar    
   5 C5             2.3717     1.4290    -0.0129 C.ar    
   6 C6             1.1455     2.1015     0.0024 C.ar    
   7 C7             3.6293    -0.6694    -0.0365 C.ar    
   8 C8             4.8031     0.0063    -0.0446 C.ar    
   9 C9             4.8359     1.4095    -0.0374 C.ar    
  10 C10            3.6406     2.1511    -0.0211 C.ar    
  11 C11            6.1026     2.1526    -0.0470 C.2     
  12 N12            6.0328     3.5041    -0.0399 N.am    
  13 C13            4.8302     4.1313    -0.0241 C.2     
  14 N14            3.6961     3.4935    -0.0158 N.2     
  15 O15            7.1745     1.5748    -0.0604 O.2     
  16 C16            7.2655     4.2957    -0.0490 C.3     
  17 C17            7.3196     5.1740     1.2048 C.3     
  18 C18            8.5708     6.0543     1.1481 C.3     
  19 O19            8.5445     6.8410    -0.0446 O.3     
  20 C20            8.5410     6.0734    -1.2500 C.3     
  21 C21            7.2886     5.1938    -1.2896 C.3     
  22 C22            3.6424    -2.1763    -0.0442 C.3     
  23 C23            3.5087    -2.6726    -1.4608 C.ar    
  24 C24            4.6328    -2.8954    -2.2437 C.ar    
  25 C25            4.4771    -3.3508    -3.5396 C.ar    
  26 N26            3.2783    -3.5750    -4.0385 N.ar    
  27 C27            2.1790    -3.3747    -3.3236 C.ar    
  28 C28            2.2623    -2.9219    -2.0084 C.ar    
  29 O29            7.3717     4.3444     2.3672 O.3     
  30 C30            0.8503    -3.6403    -3.9274 C.ar    
  31 C31            0.7472    -4.1000    -5.2435 C.ar    
  32 C32           -0.3149    -3.4412    -3.1900 C.ar    
  33 N33           -1.4954    -3.6771    -3.7250 N.ar    
  34 C34           -1.6244    -4.1060    -4.9656 C.ar    
  35 C35           -0.5154    -4.3327    -5.7605 C.ar    
  36 H36           -0.9630     1.9076     0.0169 H       
  37 H37           -0.9305    -0.5488     0.0083 H       
  38 H38            1.1786    -1.7697    -0.0183 H       
  39 H39            1.1188     3.1811     0.0081 H       
  40 H40            5.7317    -0.5451    -0.0563 H       
  41 H41            4.8132     5.2111    -0.0182 H       
  42 H42            8.1281     3.6295    -0.0650 H       
  43 H43            6.4318     5.8051     1.2460 H       
  44 H44            8.5922     6.7121     2.0170 H       
  45 H45            9.4596     5.4232     1.1477 H       
  46 H46            8.5409     6.7448    -2.1086 H       
  47 H47            9.4294     5.4425    -1.2817 H       
  48 H48            7.3062     4.5752    -2.1869 H       
  49 H49            6.4002     5.8253    -1.2987 H       
  50 H50            4.5813    -2.5336     0.3789 H       
  51 H51            2.8098    -2.5499     0.5518 H       
  52 H52            5.6198    -2.7143    -1.8443 H       
  53 H53            5.3498    -3.5248    -4.1516 H       
  54 H54            1.3665    -2.7596    -1.4274 H       
  55 H55            7.4077     4.8353     3.1995 H       
  56 H56            1.6304    -4.2689    -5.8418 H       
  57 H57           -0.2497    -3.0906    -2.1706 H       
  58 H58           -2.6111    -4.2871    -5.3655 H       
  59 H59           -0.6336    -4.6836    -6.7751 H       
@<TRIPOS>BOND
   1    1    2 ar
   2    1    6 ar
   3    1   36 1
   4    2    3 ar
   5    2   37 1
   6    3    4 ar
   7    3   38 1
   8    4    5 ar
   9    4    7 ar
  10    5    6 ar
  11    5   10 ar
  12    6   39 1
  13    7    8 ar
  14    7   22 1
  15    8    9 ar
  16    8   40 1
  17    9   10 ar
  18    9   11 1
  19   10   14 1
  20   11   12 am
  21   11   15 2
  22   12   13 1
  23   12   16 1
  24   13   14 2
  25   13   41 1
  26   16   17 1
  27   16   21 1
  28   16   42 1
  29   17   18 1
  30   17   29 1
  31   17   43 1
  32   18   19 1
  33   18   44 1
  34   18   45 1
  35   19   20 1
  36   20   21 1
  37   20   46 1
  38   20   47 1
  39   21   48 1
  40   21   49 1
  41   22   23 1
  42   22   50 1
  43   22   51 1
  44   23   24 ar
  45   23   28 ar
  46   24   25 ar
  47   24   52 1
  48   25   26 ar
  49   25   53 1
  50   26   27 ar
  51   27   28 ar
  52   27   30 1
  53   28   54 1
  54   29   55 1
  55   30   31 ar
  56   30   32 ar
  57   31   35 ar
  58   31   56 1
  59   32   33 ar
  60   32   57 1
  61   33   34 ar
  62   34   35 ar
  63   34   58 1
  64   35   59 1

#	End of record

