#	Name: ASD01150052
#	Creating user name:	WinNT
#	Creation time:	15. 06. 2019 19:03

#	Modifying user name:	WinNT
#	Modification time:	15. 06. 2019 19:03

#	Program:	/corina/corina34_cracker 3.40 0067  02.08.2006

@<TRIPOS>MOLECULE
ASD01150052
  22   22    0    0    0
SMALL
NO_CHARGES


@<TRIPOS>ATOM
   1 C1             1.2767    -0.4989     0.8836 C.ar    
   2 C2             0.2227    -0.1907     0.0431 C.ar    
   3 C3             0.3194     0.8784    -0.8287 C.ar    
   4 C4             1.4695     1.6423    -0.8622 C.ar    
   5 C5             2.5297     1.3357    -0.0190 C.ar    
   6 C6             2.4296     0.2609     0.8551 C.ar    
   7 N7             3.6960     2.1069    -0.0507 N.pl3   
   8 C8             3.6406     3.4156    -0.4486 C.2     
   9 S9             2.0825     4.1749    -0.7653 S.3     
  10 N10            4.7566     4.1099    -0.5952 N.2     
  11 C11            4.7222     5.4639    -0.5560 C.1     
  12 C12            2.6151     5.8830    -1.0391 C.3     
  13 N13            4.6933     6.5991    -0.5232 N.1     
  14 H14            1.1964    -1.3319     1.5662 H       
  15 H15           -0.6778    -0.7864     0.0673 H       
  16 H16           -0.5053     1.1161    -1.4844 H       
  17 H17            1.5445     2.4769    -1.5435 H       
  18 H18            3.2522     0.0199     1.5120 H       
  19 H19            4.5442     1.7145     0.2093 H       
  20 H20            3.3838     5.9045    -1.8116 H       
  21 H21            1.7626     6.4827    -1.3580 H       
  22 H22            3.0197     6.2904    -0.1126 H       
@<TRIPOS>BOND
   1    1    2 ar
   2    1    6 ar
   3    1   14 1
   4    2    3 ar
   5    2   15 1
   6    3    4 ar
   7    3   16 1
   8    4    5 ar
   9    4   17 1
  10    5    6 ar
  11    5    7 1
  12    6   18 1
  13    7    8 1
  14    7   19 1
  15    8    9 1
  16    8   10 2
  17    9   12 1
  18   10   11 1
  19   11   13 3
  20   12   20 1
  21   12   21 1
  22   12   22 1

#	End of record

