#	Name: ASD00170100
#	Creating user name:	WinNT
#	Creation time:	15. 06. 2019 18:31

#	Modifying user name:	WinNT
#	Modification time:	15. 06. 2019 18:31

#	Program:	/corina/corina34_cracker 3.40 0067  02.08.2006

@<TRIPOS>MOLECULE
ASD00170100
  49   53    0    0    0
SMALL
NO_CHARGES


@<TRIPOS>ATOM
   1 C1            -0.0188     1.3904    -0.3805 C.2     
   2 C2             0.0254     0.0470    -0.1594 C.2     
   3 C3            -1.2827    -0.5075     0.1370 C.2     
   4 C4            -2.2790     0.4392     0.1304 C.2     
   5 S5            -1.6609     1.9866    -0.2210 S.3     
   6 N6            -3.6074     0.1714     0.3813 N.pl3   
   7 C7             1.1521     2.2282    -0.7029 C.ar    
   8 C8             2.0576     1.8205    -1.6858 C.ar    
   9 C9             3.1496     2.6091    -1.9822 C.ar    
  10 C10            3.3496     3.8014    -1.3088 C.ar    
  11 C11            2.4571     4.2112    -0.3338 C.ar    
  12 C12            1.3575     3.4358    -0.0309 C.ar    
  13 C13           -1.5162    -1.9248     0.4131 C.2     
  14 O14           -1.8604    -2.6718    -0.4856 O.2     
  15 C15            1.2671    -0.7564    -0.2151 C.ar    
  16 C16            2.2790    -0.5476     0.7227 C.ar    
  17 C17            3.4342    -1.2994     0.6658 C.ar    
  18 C18            3.5907    -2.2597    -0.3194 C.ar    
  19 C19            2.5899    -2.4713    -1.2527 C.ar    
  20 C20            1.4279    -1.7295    -1.2022 C.ar    
  21 C21           -1.3348    -2.4498     1.7801 C.ar    
  22 Cl22           5.0474    -3.2017    -0.3851 Cl      
  23 C23           -1.0537    -1.5886     2.8307 C.ar    
  24 C24           -0.8813    -2.0767     4.1196 C.ar    
  25 C25           -0.9832    -3.4089     4.3892 C.ar    
  26 C26           -1.2667    -4.3181     3.3554 C.ar    
  27 C27           -1.4515    -3.8390     2.0357 C.ar    
  28 C28           -1.3767    -5.6965     3.6086 C.ar    
  29 C29           -1.6527    -6.5496     2.5842 C.ar    
  30 C30           -1.8283    -6.0768     1.2858 C.ar    
  31 C31           -1.7345    -4.7464     1.0060 C.ar    
  32 H32           -3.8801    -0.7197     0.6507 H       
  33 H33           -4.2698     0.8739     0.2884 H       
  34 H34            1.9030     0.8901    -2.2119 H       
  35 H35            3.8506     2.2951    -2.7415 H       
  36 H36            4.2065     4.4148    -1.5451 H       
  37 H37            2.6196     5.1428     0.1879 H       
  38 H38            0.6619     3.7569     0.7303 H       
  39 H39            2.1582     0.2014     1.4914 H       
  40 H40            4.2183    -1.1384     1.3909 H       
  41 H41            2.7174    -3.2217    -2.0189 H       
  42 H42            0.6479    -1.8956    -1.9304 H       
  43 H43           -0.9676    -0.5283     2.6445 H       
  44 H44           -0.6624    -1.3883     4.9225 H       
  45 H45           -0.8454    -3.7666     5.3989 H       
  46 H46           -1.2426    -6.0768     4.6105 H       
  47 H47           -1.7364    -7.6082     2.7810 H       
  48 H48           -2.0462    -6.7740     0.4902 H       
  49 H49           -1.8729    -4.3936    -0.0053 H       
@<TRIPOS>BOND
   1    1    2 2
   2    1    7 1
   3    1    5 1
   4    2    3 1
   5    2   15 1
   6    3    4 2
   7    3   13 1
   8    4    5 1
   9    4    6 1
  10    6   32 1
  11    6   33 1
  12    7    8 ar
  13    7   12 ar
  14    8    9 ar
  15    8   34 1
  16    9   10 ar
  17    9   35 1
  18   10   11 ar
  19   10   36 1
  20   11   12 ar
  21   11   37 1
  22   12   38 1
  23   13   14 2
  24   13   21 1
  25   15   16 ar
  26   15   20 ar
  27   16   17 ar
  28   16   39 1
  29   17   18 ar
  30   17   40 1
  31   18   19 ar
  32   18   22 1
  33   19   20 ar
  34   19   41 1
  35   20   42 1
  36   21   23 ar
  37   21   27 ar
  38   23   24 ar
  39   23   43 1
  40   24   25 ar
  41   24   44 1
  42   25   26 ar
  43   25   45 1
  44   26   27 ar
  45   26   28 ar
  46   27   31 ar
  47   28   29 ar
  48   28   46 1
  49   29   30 ar
  50   29   47 1
  51   30   31 ar
  52   30   48 1
  53   31   49 1

#	End of record

