#	Name: ASD01200075
#	Creating user name:	WinNT
#	Creation time:	15. 06. 2019 19:08

#	Modifying user name:	WinNT
#	Modification time:	15. 06. 2019 19:08

#	Program:	/corina/corina34_cracker 3.40 0067  02.08.2006

@<TRIPOS>MOLECULE
ASD01200075
  36   38    0    0    0
SMALL
NO_CHARGES


@<TRIPOS>ATOM
   1 C1             0.4771     1.4882    -1.4645 C.2     
   2 C2             0.3532     0.1667    -0.8139 C.ar    
   3 C3             1.4600    -0.6790    -0.7303 C.ar    
   4 C4             1.3364    -1.9154    -0.1189 C.ar    
   5 C5             0.1140    -2.3107     0.4088 C.ar    
   6 C6            -0.9833    -1.4739     0.3261 C.ar    
   7 C7            -0.8698    -0.2373    -0.2759 C.ar    
   8 O8             1.5444     1.8399    -1.9278 O.2     
   9 N9            -0.5948     2.3008    -1.5489 N.am    
  10 S10            0.9582     4.1655    -2.8465 S.3     
  11 C11           -0.4785     3.5426    -2.1602 C.2     
  12 N12           -1.4435     4.3981    -2.2934 N.2     
  13 C13           -1.1557     5.5332    -2.9022 C.2     
  14 C14            0.1126     5.6422    -3.3024 C.2     
  15 C15           -2.1771     6.6181    -3.1278 C.3     
  16 O16            2.4114    -2.7423    -0.0357 O.3     
  17 C17            3.2277    -2.6211     1.0445 C.ar    
  18 C18            4.4003    -3.3634     1.1180 C.ar    
  19 C19            5.2282    -3.2374     2.2184 C.ar    
  20 C20            4.8892    -2.3742     3.2445 C.ar    
  21 C21            3.7231    -1.6356     3.1730 C.ar    
  22 C22            2.8950    -1.7523     2.0726 C.ar    
  23 F23            4.7307    -4.2072     0.1159 F       
  24 H24            2.4098    -0.3705    -1.1414 H       
  25 H25            0.0203    -3.2754     0.8851 H       
  26 H26           -1.9312    -1.7871     0.7381 H       
  27 H27           -1.7280     0.4157    -0.3347 H       
  28 H28           -1.4475     2.0185    -1.1827 H       
  29 H29            0.5451     6.4879    -3.8164 H       
  30 H30           -2.1747     7.3016    -2.2788 H       
  31 H31           -1.9296     7.1667    -4.0366 H       
  32 H32           -3.1656     6.1707    -3.2313 H       
  33 H33            6.1398    -3.8137     2.2769 H       
  34 H34            5.5368    -2.2774     4.1033 H       
  35 H35            3.4610    -0.9627     3.9761 H       
  36 H36            1.9866    -1.1710     2.0159 H       
@<TRIPOS>BOND
   1    1    2 1
   2    1    8 2
   3    1    9 am
   4    2    3 ar
   5    2    7 ar
   6    3    4 ar
   7    3   24 1
   8    4    5 ar
   9    4   16 1
  10    5    6 ar
  11    5   25 1
  12    6    7 ar
  13    6   26 1
  14    7   27 1
  15    9   11 1
  16    9   28 1
  17   10   11 1
  18   10   14 1
  19   11   12 2
  20   12   13 1
  21   13   14 2
  22   13   15 1
  23   14   29 1
  24   15   30 1
  25   15   31 1
  26   15   32 1
  27   16   17 1
  28   17   18 ar
  29   17   22 ar
  30   18   19 ar
  31   18   23 1
  32   19   20 ar
  33   19   33 1
  34   20   21 ar
  35   20   34 1
  36   21   22 ar
  37   21   35 1
  38   22   36 1

#	End of record

