#	Name: ASD05720008
#	Creating user name:	WinNT
#	Creation time:	15. 06. 2019 21:01

#	Modifying user name:	WinNT
#	Modification time:	15. 06. 2019 21:01

#	Program:	/corina/corina34_cracker 3.40 0067  02.08.2006

@<TRIPOS>MOLECULE
ASD05720008
  43   44    0    0    0
SMALL
NO_CHARGES


@<TRIPOS>ATOM
   1 N1            -0.0184     1.3817    -0.1517 N.pl3   
   2 N2             0.0438    -0.0193    -0.2266 N.2     
   3 C3             1.2849    -0.3598     0.0070 C.2     
   4 N4             2.0060     0.7366     0.2237 N.2     
   5 C5             1.2357     1.8017     0.1322 C.2     
   6 C6            -1.2031     2.2207    -0.3480 C.3     
   7 O7            -1.8386     2.4497     0.9113 O.3     
   8 C8            -3.0116     3.2619     0.8313 C.3     
   9 C9            -3.6052     3.4398     2.2301 C.3     
  10 Si10          -5.1344     4.4987     2.1258 Si      
  11 C11           -6.3866     3.6739     1.0201 C.3     
  12 C12           -5.8573     4.7152     3.8291 C.3     
  13 C13           -4.6887     6.1658     1.4238 C.3     
  14 C14            1.6658     3.2064     0.3085 C.ar    
  15 C15            0.7226     4.1993     0.5760 C.ar    
  16 C16            1.1293     5.5071     0.7394 C.ar    
  17 C17            2.4706     5.8356     0.6379 C.ar    
  18 C18            3.4107     4.8549     0.3727 C.ar    
  19 C19            3.0163     3.5424     0.2136 C.ar    
  20 C20            0.1118     6.5806     1.0284 C.3     
  21 Br21           3.0200     7.6311     0.8620 Br      
  22 H22            1.6640    -1.3709     0.0218 H       
  23 H23           -0.9048     3.1745    -0.7831 H       
  24 H24           -1.8982     1.7166    -1.0194 H       
  25 H25           -2.7508     4.2373     0.4205 H       
  26 H26           -3.7442     2.7794     0.1843 H       
  27 H27           -3.8660     2.4644     2.6409 H       
  28 H28           -2.8726     3.9223     2.8771 H       
  29 H29           -6.6474     2.6986     1.4308 H       
  30 H30           -7.2813     4.2935     0.9590 H       
  31 H31           -5.9637     3.5472     0.0235 H       
  32 H32           -5.1247     5.1978     4.4761 H       
  33 H33           -6.7520     5.3348     3.7681 H       
  34 H34           -6.1181     3.7398     4.2398 H       
  35 H35           -4.2658     6.0391     0.4272 H       
  36 H36           -5.5834     6.7854     1.3627 H       
  37 H37           -3.9561     6.6484     2.0707 H       
  38 H38           -0.3239     3.9443     0.6547 H       
  39 H39            4.4555     5.1170     0.2943 H       
  40 H40            3.7512     2.7772     0.0115 H       
  41 H41           -0.0179     6.6775     2.1063 H       
  42 H42            0.4576     7.5290     0.6173 H       
  43 H43           -0.8401     6.3116     0.5706 H       
@<TRIPOS>BOND
   1    1    2 1
   2    1    5 1
   3    1    6 1
   4    2    3 2
   5    3    4 1
   6    3   22 1
   7    4    5 2
   8    5   14 1
   9    6    7 1
  10    6   23 1
  11    6   24 1
  12    7    8 1
  13    8    9 1
  14    8   25 1
  15    8   26 1
  16    9   10 1
  17    9   27 1
  18    9   28 1
  19   10   11 1
  20   10   12 1
  21   10   13 1
  22   11   29 1
  23   11   30 1
  24   11   31 1
  25   12   32 1
  26   12   33 1
  27   12   34 1
  28   13   35 1
  29   13   36 1
  30   13   37 1
  31   14   15 ar
  32   14   19 ar
  33   15   16 ar
  34   15   38 1
  35   16   17 ar
  36   16   20 1
  37   17   18 ar
  38   17   21 1
  39   18   19 ar
  40   18   39 1
  41   19   40 1
  42   20   41 1
  43   20   42 1
  44   20   43 1

#	End of record

