#	Name: ASD03430821
#	Creating user name:	WinNT
#	Creation time:	15. 06. 2019 20:41

#	Modifying user name:	WinNT
#	Modification time:	15. 06. 2019 20:41

#	Program:	/corina/corina34_cracker 3.40 0067  02.08.2006

@<TRIPOS>MOLECULE
ASD03430821
  50   55    0    0    0
SMALL
NO_CHARGES


@<TRIPOS>ATOM
   1 C1             0.0340     1.2606     0.5666 C.ar    
   2 C2             0.0309    -0.1115     0.4456 C.ar    
   3 C3             1.2212    -0.8077     0.4400 C.ar    
   4 C4             2.4326    -0.1329     0.5674 C.ar    
   5 C5             2.4271     1.2521     0.6811 C.ar    
   6 C6             1.2305     1.9588     0.6774 C.ar    
   7 O7             3.4823    -1.0031     0.5700 O.3     
   8 C8             1.5545    -2.2685     0.3026 C.3     
   9 C9             3.0604    -2.2591     0.0049 C.3     
  10 C10            0.3492    -4.0469     1.1425 C.ar    
  11 C11            1.2342    -3.0485     1.5429 C.ar    
  12 C12            0.7727    -2.9293    -0.7962 C.2     
  13 N13            0.0994    -3.9496    -0.2284 N.am    
  14 O14            0.7510    -2.6077    -1.9655 O.2     
  15 C15            1.6284    -2.9484     2.8581 C.ar    
  16 C16            1.1458    -3.8435     3.7966 C.ar    
  17 C17            0.2665    -4.8382     3.4105 C.ar    
  18 C18           -0.1320    -4.9427     2.0937 C.ar    
  19 C19           -0.7907    -4.8516    -0.9634 C.3     
  20 O20            1.0099     3.3005     0.7588 O.3     
  21 C21           -2.2141    -4.3765    -0.8238 C.2     
  22 C22           -1.0849     2.2823     0.6195 C.3     
  23 C23           -0.3512     3.5329     1.1589 C.3     
  24 C24           -3.1116    -4.7882     0.0919 C.2     
  25 N25           -4.2571    -4.1242    -0.1222 N.2     
  26 C26           -4.1036    -3.3168    -1.1358 C.2     
  27 N27           -2.8413    -3.4394    -1.5997 N.pl3   
  28 C28           -2.2551    -2.7113    -2.7278 C.3     
  29 C29           -2.2628    -3.6040    -3.9703 C.3     
  30 H30           -0.9050    -0.6428     0.3553 H       
  31 H31            3.3622     1.7845     0.7736 H       
  32 H32            3.2427    -2.2808    -1.0695 H       
  33 H33            3.5580    -3.0929     0.5000 H       
  34 H34            2.3154    -2.1707     3.1577 H       
  35 H35            1.4555    -3.7656     4.8283 H       
  36 H36           -0.1099    -5.5369     4.1429 H       
  37 H37           -0.8196    -5.7219     1.7997 H       
  38 H38           -0.5117    -4.8584    -2.0171 H       
  39 H39           -0.7026    -5.8594    -0.5577 H       
  40 H40           -1.4906     2.4675    -0.3751 H       
  41 H41           -1.8700     1.9650     1.3058 H       
  42 H42           -0.4304     3.5887     2.2446 H       
  43 H43           -0.7407     4.4392     0.6952 H       
  44 H44           -2.9391    -5.5239     0.8635 H       
  45 H45           -4.8598    -2.6572    -1.5354 H       
  46 H46           -2.8394    -1.8121    -2.9229 H       
  47 H47           -1.2292    -2.4328    -2.4868 H       
  48 H48           -1.7538    -4.5417    -3.7472 H       
  49 H49           -3.2923    -3.8102    -4.2632 H       
  50 H50           -1.7478    -3.0962    -4.7858 H       
@<TRIPOS>BOND
   1    1    2 ar
   2    1    6 ar
   3    1   22 1
   4    2    3 ar
   5    2   30 1
   6    3    4 ar
   7    3    8 1
   8    4    5 ar
   9    4    7 1
  10    5    6 ar
  11    5   31 1
  12    6   20 1
  13    7    9 1
  14    8    9 1
  15    8   11 1
  16    8   12 1
  17    9   32 1
  18    9   33 1
  19   10   11 ar
  20   10   13 1
  21   10   18 ar
  22   11   15 ar
  23   12   13 am
  24   12   14 2
  25   13   19 1
  26   15   16 ar
  27   15   34 1
  28   16   17 ar
  29   16   35 1
  30   17   18 ar
  31   17   36 1
  32   18   37 1
  33   19   21 1
  34   19   38 1
  35   19   39 1
  36   20   23 1
  37   21   24 2
  38   21   27 1
  39   22   23 1
  40   22   40 1
  41   22   41 1
  42   23   42 1
  43   23   43 1
  44   24   25 1
  45   24   44 1
  46   25   26 2
  47   26   27 1
  48   26   45 1
  49   27   28 1
  50   28   29 1
  51   28   46 1
  52   28   47 1
  53   29   48 1
  54   29   49 1
  55   29   50 1

#	End of record

