#	Name: ASD01870557
#	Creating user name:	WinNT
#	Creation time:	15. 06. 2019 19:39

#	Modifying user name:	WinNT
#	Modification time:	15. 06. 2019 19:39

#	Program:	/corina/corina34_cracker 3.40 0067  02.08.2006

@<TRIPOS>MOLECULE
ASD01870557
  48   53    0    0    0
SMALL
NO_CHARGES


@<TRIPOS>ATOM
   1 N1            -0.0159     1.3218     0.0093 N.2     
   2 C2             0.0021    -0.0041     0.0020 C.ar    
   3 C3             1.3553    -0.4303    -0.0132 C.ar    
   4 N4             1.3007     1.8031    -0.0007 N.pl3   
   5 C5            -1.0059    -1.0028     0.0063 C.ar    
   6 N6            -0.6346    -2.2735    -0.0041 N.ar    
   7 C7             0.6441    -2.6217    -0.0182 C.ar    
   8 N8             1.6184    -1.7450    -0.0228 N.ar    
   9 C9             1.8018     3.0710     0.0009 C.2     
  10 C10            2.1503     0.7299    -0.0146 C.2     
  11 C11            3.5361     0.9318    -0.0267 C.2     
  12 C12            4.0272     2.2054    -0.0246 C.2     
  13 C13            3.1363     3.2872    -0.0110 C.2     
  14 N14           -2.3433    -0.6573     0.0214 N.pl3   
  15 C15            0.9926    -4.0878    -0.0289 C.3     
  16 C16           -3.3699    -1.7024     0.0255 C.3     
  17 C17           -4.6539    -1.1536     0.6509 C.3     
  18 C18           -3.6517    -2.1463    -1.4113 C.3     
  19 C19           -5.1475     0.0429    -0.1649 C.3     
  20 C20           -5.4293    -0.4010    -1.6018 C.3     
  21 C21           -4.1453    -0.9498    -2.2271 C.3     
  22 C22           -6.5015    -1.4925    -1.5974 C.3     
  23 C23           -4.7238    -3.2378    -1.4069 C.3     
  24 C24           -6.0078    -2.6890    -0.7816 C.3     
  25 C25           -5.7260    -2.2452     0.6553 C.3     
  26 H26            1.1249     3.9124     0.0116 H       
  27 H27            4.2099     0.0878    -0.0373 H       
  28 H28            5.0933     2.3780    -0.0338 H       
  29 H29            3.5174     4.2977    -0.0095 H       
  30 H30           -2.6027     0.2773     0.0292 H       
  31 H31            1.0667    -4.4361    -1.0590 H       
  32 H32            1.9473    -4.2380     0.4750 H       
  33 H33            0.2157    -4.6497     0.4897 H       
  34 H34           -3.0182    -2.5548     0.6068 H       
  35 H35           -4.4531    -0.8374     1.6745 H       
  36 H36           -2.7370    -2.5373    -1.8568 H       
  37 H37           -6.0623     0.4338     0.2806 H       
  38 H38           -4.3837     0.8205    -0.1681 H       
  39 H39           -5.7810     0.4514    -2.1830 H       
  40 H40           -3.3815    -0.1722    -2.2303 H       
  41 H41           -4.3461    -1.2660    -3.2508 H       
  42 H42           -7.4162    -1.1015    -1.1519 H       
  43 H43           -6.7022    -1.8087    -2.6210 H       
  44 H44           -4.9246    -3.5540    -2.4306 H       
  45 H45           -4.3721    -4.0902    -0.8257 H       
  46 H46           -6.7716    -3.4666    -0.7785 H       
  47 H47           -5.3743    -3.0976     1.2365 H       
  48 H48           -6.6407    -1.8542     1.1008 H       
@<TRIPOS>BOND
   1    1    2 2
   2    1    4 1
   3    2    3 ar
   4    2    5 ar
   5    3   10 2
   6    3    8 ar
   7    4   10 1
   8    4    9 1
   9    5    6 ar
  10    5   14 1
  11    6    7 ar
  12    7    8 ar
  13    7   15 1
  14    9   13 2
  15    9   26 1
  16   10   11 1
  17   11   12 2
  18   11   27 1
  19   12   13 1
  20   12   28 1
  21   13   29 1
  22   14   16 1
  23   14   30 1
  24   15   31 1
  25   15   32 1
  26   15   33 1
  27   16   17 1
  28   16   18 1
  29   16   34 1
  30   17   19 1
  31   17   25 1
  32   17   35 1
  33   18   23 1
  34   18   21 1
  35   18   36 1
  36   19   20 1
  37   19   37 1
  38   19   38 1
  39   20   21 1
  40   20   22 1
  41   20   39 1
  42   21   40 1
  43   21   41 1
  44   22   24 1
  45   22   42 1
  46   22   43 1
  47   23   24 1
  48   23   44 1
  49   23   45 1
  50   24   25 1
  51   24   46 1
  52   25   47 1
  53   25   48 1

#	End of record

