#	Name: ASD07301035
#	Creating user name:	WinNT
#	Creation time:	15. 06. 2019 21:10

#	Modifying user name:	WinNT
#	Modification time:	15. 06. 2019 21:10

#	Program:	/corina/corina34_cracker 3.40 0067  02.08.2006

@<TRIPOS>MOLECULE
ASD07301035
  37   39    0    0    0
SMALL
NO_CHARGES


@<TRIPOS>ATOM
   1 C1            -0.0178     1.4649     0.0101 C.2     
   2 C2             0.0021    -0.0041     0.0020 C.2     
   3 C3             1.2770    -0.6367    -0.0136 C.2     
   4 C4             2.3784     0.1588    -0.0198 C.2     
   5 N5             2.2582     1.5097    -0.0114 N.pl3   
   6 N6             1.1291     2.1160     0.0026 N.2     
   7 C7            -1.2972     2.1982     0.0202 C.2     
   8 O8            -2.3476     1.5874     0.0218 O.2     
   9 O9            -1.3014     3.5458     0.0275 O.3     
  10 O10            6.8722     4.5667    -0.0182 O.3     
  11 C11            7.6779     4.5374    -1.2012 C.3     
  12 C12            6.7548     4.7073    -2.4155 C.3     
  13 O13            5.8115     3.6304    -2.4151 O.3     
  14 C14            5.2083     3.3454    -1.2280 C.ar    
  15 C15            5.7395     3.8117    -0.0301 C.ar    
  16 C16            4.0523     2.5822    -1.2208 C.ar    
  17 C17            3.4258     2.2802    -0.0184 C.ar    
  18 C18            3.9603     2.7453     1.1786 C.ar    
  19 C19            5.1133     3.5083     1.1703 C.ar    
  20 F20            3.3526     2.4519     2.3491 F       
  21 F21            6.0774     5.9281    -2.3260 F       
  22 F22            7.5112     4.6717    -3.5918 F       
  23 F23            8.6073     5.5825    -1.1651 F       
  24 F24            8.3477     3.3121    -1.2856 F       
  25 O25           -1.0316    -0.6549     0.0088 O.2     
  26 O26            1.3889    -1.9916    -0.0215 O.3     
  27 C27            2.7111    -2.5333    -0.0370 C.3     
  28 C28           -2.5972     4.2009     0.0372 C.3     
  29 H29            3.3608    -0.2897    -0.0312 H       
  30 H30            3.6382     2.2213    -2.1506 H       
  31 H31            5.5276     3.8686     2.1003 H       
  32 H32            3.2335    -2.1911    -0.9304 H       
  33 H33            3.2508    -2.2000     0.8494 H       
  34 H34            2.6578    -3.6220    -0.0420 H       
  35 H35           -3.1575     3.9111    -0.8517 H       
  36 H36           -3.1490     3.9014     0.9282 H       
  37 H37           -2.4577     5.2819     0.0424 H       
@<TRIPOS>BOND
   1    1    2 1
   2    1    6 2
   3    1    7 1
   4    2    3 1
   5    2   25 2
   6    3    4 2
   7    3   26 1
   8    4    5 1
   9    4   29 1
  10    5    6 1
  11    5   17 1
  12    7    8 2
  13    7    9 1
  14    9   28 1
  15   10   11 1
  16   10   15 1
  17   11   12 1
  18   11   23 1
  19   11   24 1
  20   12   13 1
  21   12   21 1
  22   12   22 1
  23   13   14 1
  24   14   15 ar
  25   14   16 ar
  26   15   19 ar
  27   16   17 ar
  28   16   30 1
  29   17   18 ar
  30   18   19 ar
  31   18   20 1
  32   19   31 1
  33   26   27 1
  34   27   32 1
  35   27   33 1
  36   27   34 1
  37   28   35 1
  38   28   36 1
  39   28   37 1

#	End of record

