#	Name: ASD03740177
#	Creating user name:	WinNT
#	Creation time:	15. 06. 2019 20:46

#	Modifying user name:	WinNT
#	Modification time:	15. 06. 2019 20:46

#	Program:	/corina/corina34_cracker 3.40 0067  02.08.2006

@<TRIPOS>MOLECULE
ASD03740177
  52   56    0    0    0
SMALL
NO_CHARGES


@<TRIPOS>ATOM
   1 C1            -0.0140     1.3840     0.1485 C.ar    
   2 C2             0.0047    -0.0050     0.1346 C.ar    
   3 C3             1.1870    -0.6884     0.0927 C.ar    
   4 C4             2.3910     0.0108     0.0630 C.ar    
   5 C5             2.3735     1.4189     0.0766 C.ar    
   6 C6             1.1509     2.0955     0.1201 C.ar    
   7 N7             3.7074    -0.3684     0.0199 N.pl3   
   8 N8             4.5141     0.7740     0.0062 N.2     
   9 C9             3.7717     1.8470     0.0385 C.2     
  10 O10            4.2174     3.1311     0.0367 O.3     
  11 C11            4.1923    -1.7505    -0.0068 C.3     
  12 C12            4.3156    -2.2121    -1.4361 C.ar    
  13 C13            5.5015    -2.0269    -2.1220 C.ar    
  14 C14            5.6152    -2.4501    -3.4329 C.ar    
  15 C15            4.5419    -3.0590    -4.0585 C.ar    
  16 C16            3.3554    -3.2441    -3.3715 C.ar    
  17 C17            3.2447    -2.8256    -2.0588 C.ar    
  18 C18            5.6324     3.3266    -0.0040 C.3     
  19 C19            5.9406     4.8252     0.0002 C.3     
  20 Cl20           4.6838    -3.5902    -5.7052 Cl      
  21 C21            7.4556     5.0345    -0.0433 C.3     
  22 N22            7.7515     6.4734    -0.0393 N.3     
  23 C23            9.1860     6.7255     0.3105 C.3     
  24 C24            9.9774     5.8806    -0.7367 C.3     
  25 O25            9.8094     6.5704    -1.9908 O.3     
  26 C26            7.5592     7.0594    -1.3884 C.3     
  27 C27            8.9328     7.7062    -1.7469 C.3     
  28 C28            9.3986     8.1519    -0.3146 C.3     
  29 H29           -0.9591     1.9060     0.1776 H       
  30 H30           -0.9267    -0.5512     0.1575 H       
  31 H31            1.1879    -1.7684     0.0830 H       
  32 H32            1.1280     3.1752     0.1305 H       
  33 H33            5.1675    -1.8028     0.4773 H       
  34 H34            3.4887    -2.3927     0.5230 H       
  35 H35            6.3391    -1.5512    -1.6337 H       
  36 H36            6.5415    -2.3050    -3.9688 H       
  37 H37            2.5173    -3.7194    -3.8593 H       
  38 H38            2.3186    -2.9700    -1.5224 H       
  39 H39            6.0890     2.8593     0.8686 H       
  40 H40            6.0357     2.8752    -0.9105 H       
  41 H41            5.4841     5.2924    -0.8724 H       
  42 H42            5.5374     5.2765     0.9067 H       
  43 H43            7.9121     4.5672     0.8292 H       
  44 H44            7.8588     4.5831    -0.9499 H       
  45 H45            9.4615     6.5877     1.3561 H       
  46 H46           11.0328     5.8383    -0.4676 H       
  47 H47            9.5629     4.8745    -0.8009 H       
  48 H48            7.3083     6.2798    -2.1078 H       
  49 H49            6.7778     7.8189    -1.3637 H       
  50 H50            8.9150     8.4718    -2.5226 H       
  51 H51            8.7388     8.9009     0.1233 H       
  52 H52           10.4429     8.4637    -0.2948 H       
@<TRIPOS>BOND
   1    1    2 ar
   2    1    6 ar
   3    1   29 1
   4    2    3 ar
   5    2   30 1
   6    3    4 ar
   7    3   31 1
   8    4    5 ar
   9    4    7 1
  10    5    6 ar
  11    5    9 1
  12    6   32 1
  13    7    8 1
  14    7   11 1
  15    8    9 2
  16    9   10 1
  17   10   18 1
  18   11   12 1
  19   11   33 1
  20   11   34 1
  21   12   13 ar
  22   12   17 ar
  23   13   14 ar
  24   13   35 1
  25   14   15 ar
  26   14   36 1
  27   15   16 ar
  28   15   20 1
  29   16   17 ar
  30   16   37 1
  31   17   38 1
  32   18   19 1
  33   18   39 1
  34   18   40 1
  35   19   21 1
  36   19   41 1
  37   19   42 1
  38   21   22 1
  39   21   43 1
  40   21   44 1
  41   22   23 1
  42   22   26 1
  43   23   24 1
  44   23   28 1
  45   23   45 1
  46   24   25 1
  47   24   46 1
  48   24   47 1
  49   25   27 1
  50   26   27 1
  51   26   48 1
  52   26   49 1
  53   27   28 1
  54   27   50 1
  55   28   51 1
  56   28   52 1

#	End of record

