#	Name: ASD03950080
#	Creating user name:	WinNT
#	Creation time:	15. 06. 2019 20:48

#	Modifying user name:	WinNT
#	Modification time:	15. 06. 2019 20:48

#	Program:	/corina/corina34_cracker 3.40 0067  02.08.2006

@<TRIPOS>MOLECULE
ASD03950080
  63   66    0    0    0
SMALL
NO_CHARGES


@<TRIPOS>ATOM
   1 N1            -0.0178     1.4650     0.0101 N.am    
   2 C2             0.0021    -0.0041     0.0020 C.3     
   3 C3             0.8803    -0.4916     1.1586 C.3     
   4 C4             2.2627     0.1563     1.0525 C.3     
   5 C5             2.1248     1.6768     1.1584 C.3     
   6 C6             1.2607     2.1889     0.0018 C.3     
   7 C7            -1.1868     2.1359     0.0193 C.2     
   8 O8            -2.2375     1.5256     0.0210 O.2     
   9 O9            -1.1902     3.4822     0.0266 O.3     
  10 N10            3.9431    -0.8095     4.1799 N.pl3   
  11 N11            2.9116    -0.2171     3.4446 N.2     
  12 C12            3.1403    -0.3472     2.1693 C.2     
  13 C13            4.4006    -1.0701     2.0164 C.ar    
  14 C14            5.1432    -1.4948     0.9115 C.ar    
  15 C15            6.3358    -2.1787     1.1010 C.ar    
  16 C16            6.7999    -2.4465     2.3900 C.ar    
  17 C17            6.0733    -2.0310     3.4988 C.ar    
  18 C18            4.8627    -1.3363     3.3191 C.ar    
  19 C19            7.1225    -2.6286    -0.0743 C.ar    
  20 C20            8.3208    -3.3157     0.1079 C.ar    
  21 C21            9.0485    -3.7318    -0.9886 C.ar    
  22 C22            8.5901    -3.4677    -2.2667 C.ar    
  23 C23            7.4012    -2.7860    -2.4533 C.ar    
  24 C24            6.6626    -2.3704    -1.3639 C.ar    
  25 C25            9.3892    -3.9241    -3.4600 C.3     
  26 O26            8.9722    -5.2374    -3.8386 O.3     
  27 C27            6.5688    -2.3164     4.8587 C.2     
  28 O28            5.9307    -1.9516     5.8273 O.2     
  29 N29            7.7288    -2.9816     5.0275 N.am    
  30 C30           -2.4856     4.1381     0.0364 C.3     
  31 C31           -3.2605     3.7182     1.2870 C.3     
  32 C32           -2.2890     5.6554     0.0437 C.3     
  33 C33           -3.2723     3.7317    -1.2114 C.3     
  34 H34           -1.0118    -0.3840     0.1278 H       
  35 H35            0.4128    -0.3587    -0.9433 H       
  36 H36            0.4202    -0.2139     2.1069 H       
  37 H37            0.9816    -1.5757     1.1066 H       
  38 H38            2.7120    -0.1016     0.0934 H       
  39 H39            1.6530     1.9341     2.1067 H       
  40 H40            3.1119     2.1361     1.1062 H       
  41 H41            1.7740     2.0131    -0.9436 H       
  42 H42            1.0772     3.2560     0.1274 H       
  43 H43            3.9986    -0.8379     5.1479 H       
  44 H44            4.7893    -1.2914    -0.0884 H       
  45 H45            7.7290    -2.9801     2.5260 H       
  46 H46            8.6797    -3.5221     1.1054 H       
  47 H47            9.9776    -4.2642    -0.8485 H       
  48 H48            7.0478    -2.5824    -3.4534 H       
  49 H49            5.7320    -1.8424    -1.5108 H       
  50 H50            9.2260    -3.2375    -4.2907 H       
  51 H51           10.4486    -3.9390    -3.2038 H       
  52 H52            9.4454    -5.5956    -4.6021 H       
  53 H53            8.2378    -3.2727     4.2548 H       
  54 H54            8.0546    -3.1693     5.9216 H       
  55 H55           -2.7000     4.0076     2.1759 H       
  56 H56           -4.2329     4.2105     1.2943 H       
  57 H57           -3.4005     2.6372     1.2818 H       
  58 H58           -1.7370     5.9545    -0.8473 H       
  59 H59           -3.2615     6.1477     0.0510 H       
  60 H60           -1.7286     5.9448     0.9326 H       
  61 H61           -3.4124     2.6508    -1.2166 H       
  62 H62           -4.2448     4.2241    -1.2041 H       
  63 H63           -2.7203     4.0309    -2.1024 H       
@<TRIPOS>BOND
   1    1    2 1
   2    1    6 1
   3    1    7 am
   4    2    3 1
   5    2   34 1
   6    2   35 1
   7    3    4 1
   8    3   36 1
   9    3   37 1
  10    4    5 1
  11    4   12 1
  12    4   38 1
  13    5    6 1
  14    5   39 1
  15    5   40 1
  16    6   41 1
  17    6   42 1
  18    7    8 2
  19    7    9 1
  20    9   30 1
  21   10   11 1
  22   10   18 1
  23   10   43 1
  24   11   12 2
  25   12   13 1
  26   13   14 ar
  27   13   18 ar
  28   14   15 ar
  29   14   44 1
  30   15   16 ar
  31   15   19 1
  32   16   17 ar
  33   16   45 1
  34   17   18 ar
  35   17   27 1
  36   19   20 ar
  37   19   24 ar
  38   20   21 ar
  39   20   46 1
  40   21   22 ar
  41   21   47 1
  42   22   23 ar
  43   22   25 1
  44   23   24 ar
  45   23   48 1
  46   24   49 1
  47   25   26 1
  48   25   50 1
  49   25   51 1
  50   26   52 1
  51   27   28 2
  52   27   29 am
  53   29   53 1
  54   29   54 1
  55   30   31 1
  56   30   32 1
  57   30   33 1
  58   31   55 1
  59   31   56 1
  60   31   57 1
  61   32   58 1
  62   32   59 1
  63   32   60 1
  64   33   61 1
  65   33   62 1
  66   33   63 1

#	End of record

