#	Name: ASD03160003
#	Creating user name:	WinNT
#	Creation time:	15. 06. 2019 20:33

#	Modifying user name:	WinNT
#	Modification time:	15. 06. 2019 20:33

#	Program:	/corina/corina34_cracker 3.40 0067  02.08.2006

@<TRIPOS>MOLECULE
ASD03160003
  45   47    0    0    0
SMALL
NO_CHARGES


@<TRIPOS>ATOM
   1 C1            -0.9537     1.2519     0.9646 C.2     
   2 C2             0.1748     2.0068     0.3803 C.2     
   3 C3             1.6899     4.9017    -0.8334 C.ar    
   4 C4             0.7846     5.9506    -0.7420 C.ar    
   5 C5             1.1512     7.2156    -1.1584 C.ar    
   6 C6             2.4179     7.4379    -1.6662 C.ar    
   7 C7             3.3219     6.3952    -1.7584 C.ar    
   8 C8             4.7016     6.6421    -2.3120 C.3     
   9 C9             2.9617     5.1284    -1.3434 C.ar    
  10 C10            1.4367     1.4788     0.0327 C.2     
  11 C11           -0.0008    -1.6961     5.5425 C.3     
  12 O12           -0.6432    -1.4002     4.3008 O.3     
  13 C13           -0.8324    -2.4362     3.4418 C.ar    
  14 C14           -0.4087    -3.7111     3.7869 C.ar    
  15 C15           -0.6022    -4.7626     2.9118 C.ar    
  16 C16           -1.2176    -4.5449     1.6931 C.ar    
  17 C17           -1.6410    -3.2748     1.3468 C.ar    
  18 C18           -1.4550    -2.2214     2.2205 C.ar    
  19 C19           -1.9171    -0.8376     1.8426 C.3     
  20 N20           -0.7740    -0.0535     1.3685 N.pl3   
  21 N21           -2.1178     1.8227     1.1029 N.2     
  22 N22            0.1796     3.2935     0.0854 N.2     
  23 N23            1.3231     3.6188    -0.4066 N.pl3   
  24 N24            2.1409     2.4821    -0.4506 N.2     
  25 N25            1.8559     0.1555     0.1736 N.pl3   
  26 H26           -0.2052     5.7774    -0.3462 H       
  27 H27            0.4475     8.0318    -1.0877 H       
  28 H28            2.7018     8.4277    -1.9917 H       
  29 H29            5.3757     6.9139    -1.4997 H       
  30 H30            5.0653     5.7369    -2.7984 H       
  31 H31            4.6619     7.4539    -3.0383 H       
  32 H32            3.6680     4.3146    -1.4161 H       
  33 H33            0.9922    -2.1023     5.3502 H       
  34 H34            0.0877    -0.7838     6.1323 H       
  35 H35           -0.5925    -2.4281     6.0923 H       
  36 H36            0.0725    -3.8816     4.7386 H       
  37 H37           -0.2721    -5.7554     3.1798 H       
  38 H38           -1.3680    -5.3682     1.0105 H       
  39 H39           -2.1212    -3.1073     0.3940 H       
  40 H40           -2.6633    -0.9072     1.0512 H       
  41 H41           -2.3556    -0.3505     2.7136 H       
  42 H42            0.1094    -0.4531     1.3388 H       
  43 H43           -2.2188     2.7694     0.9176 H       
  44 H44            1.2022    -0.5492     0.3039 H       
  45 H45            2.8012    -0.0599     0.1413 H       
@<TRIPOS>BOND
   1    1   20 1
   2    1    2 1
   3    1   21 2
   4    2   10 1
   5    2   22 2
   6    3    4 ar
   7    3    9 ar
   8    3   23 1
   9    4    5 ar
  10    4   26 1
  11    5   27 1
  12    5    6 ar
  13    6   28 1
  14    6    7 ar
  15    7    8 1
  16    7    9 ar
  17    8   29 1
  18    8   30 1
  19    8   31 1
  20    9   32 1
  21   10   24 2
  22   10   25 1
  23   11   12 1
  24   11   33 1
  25   11   34 1
  26   11   35 1
  27   12   13 1
  28   13   14 ar
  29   13   18 ar
  30   14   36 1
  31   14   15 ar
  32   15   37 1
  33   15   16 ar
  34   16   17 ar
  35   16   38 1
  36   17   18 ar
  37   17   39 1
  38   18   19 1
  39   19   20 1
  40   19   40 1
  41   19   41 1
  42   20   42 1
  43   21   43 1
  44   22   23 1
  45   23   24 1
  46   25   44 1
  47   25   45 1

#	End of record

