#	Name: ASD03092925
#	Creating user name:	WinNT
#	Creation time:	15. 06. 2019 20:33

#	Modifying user name:	WinNT
#	Modification time:	15. 06. 2019 20:33

#	Program:	/corina/corina34_cracker 3.40 0067  02.08.2006

@<TRIPOS>MOLECULE
ASD03092925
  56   59    0    0    0
SMALL
NO_CHARGES


@<TRIPOS>ATOM
   1 C1            -0.0252     1.4918     0.0190 C.3     
   2 C2            -0.0004    -0.0150     0.0038 C.2     
   3 C3            -0.0893    -0.8127    -1.1198 C.2     
   4 C4            -0.2241    -0.3697    -2.5072 C.2     
   5 O5            -1.3240    -0.2857    -3.0133 O.2     
   6 C6             1.0028    -0.0175    -3.3084 C.3     
   7 C7             0.5993     0.2842    -4.7530 C.3     
   8 C8             0.2052     1.7518    -4.9888 C.3     
   9 C9             0.9572     1.6568    -6.3268 C.3     
  10 C10            1.7949     0.5374    -5.6865 C.3     
  11 C11           -0.0197    -2.2045    -0.6330 C.2     
  12 C12            0.1026    -2.1259     0.7155 C.2     
  13 C13            0.2098    -3.2996     1.6547 C.3     
  14 N14            0.1180    -0.8120     1.0837 N.pl3   
  15 C15            0.2371    -0.3548     2.4033 C.ar    
  16 C16            1.4070    -0.5831     3.1154 C.ar    
  17 C17            1.5221    -0.1312     4.4154 C.ar    
  18 C18            0.4725     0.5483     5.0084 C.ar    
  19 Cl19           0.6200     1.1147     6.6428 Cl      
  20 C20           -0.6944     0.7775     4.3006 C.ar    
  21 C21           -0.8124     0.3322     2.9986 C.ar    
  22 C22           -0.0732    -3.4387    -1.4523 C.ar    
  23 C23           -1.2284    -3.7556    -2.1656 C.ar    
  24 C24           -1.2723    -4.9056    -2.9270 C.ar    
  25 C25           -0.1731    -5.7436    -2.9831 C.ar    
  26 C26            0.9757    -5.4346    -2.2771 C.ar    
  27 C27            1.0334    -4.2841    -1.5172 C.ar    
  28 S28           -0.2367    -7.2106    -3.9570 S.o2    
  29 N29            0.2948    -6.8149    -5.4746 N.am    
  30 O30            0.7308    -8.0968    -3.4113 O.2     
  31 O31           -1.6114    -7.5459    -4.0880 O.2     
  32 H32            0.9963     1.8720     0.0174 H       
  33 H33           -0.5496     1.8554    -0.8646 H       
  34 H34           -0.5402     1.8376     0.9152 H       
  35 H35            1.4809     0.8603    -2.8737 H       
  36 H36            1.6996    -0.8556    -3.2932 H       
  37 H37           -0.1205    -0.4317    -5.1498 H       
  38 H38           -0.8684     1.9030    -5.1011 H       
  39 H39            0.6595     2.4451    -4.2809 H       
  40 H40            0.3345     1.3172    -7.1545 H       
  41 H41            1.5336     2.5499    -6.5682 H       
  42 H42            2.6838     0.8986    -5.1693 H       
  43 H43            2.0047    -0.2919    -6.3620 H       
  44 H44            1.2589    -3.5643     1.7872 H       
  45 H45           -0.2225    -3.0337     2.6193 H       
  46 H46           -0.3294    -4.1498     1.2368 H       
  47 H47            2.2261    -1.1140     2.6533 H       
  48 H48            2.4319    -0.3085     4.9697 H       
  49 H49           -1.5121     1.3081     4.7656 H       
  50 H50           -1.7218     0.5146     2.4453 H       
  51 H51           -2.0875    -3.1024    -2.1220 H       
  52 H52           -2.1667    -5.1521    -3.4800 H       
  53 H53            1.8306    -6.0930    -2.3240 H       
  54 H54            1.9324    -4.0416    -0.9700 H       
  55 H55            0.5658    -5.9046    -5.6716 H       
  56 H56            0.3352    -7.4934    -6.1666 H       
@<TRIPOS>BOND
   1    1    2 1
   2    1   32 1
   3    1   33 1
   4    1   34 1
   5    2   14 1
   6    2    3 2
   7    3    4 1
   8    3   11 1
   9    4    5 2
  10    4    6 1
  11    6    7 1
  12    6   35 1
  13    6   36 1
  14    7   10 1
  15    7    8 1
  16    7   37 1
  17    8    9 1
  18    8   38 1
  19    8   39 1
  20    9   10 1
  21    9   40 1
  22    9   41 1
  23   10   42 1
  24   10   43 1
  25   11   12 2
  26   11   22 1
  27   12   13 1
  28   12   14 1
  29   13   44 1
  30   13   45 1
  31   13   46 1
  32   14   15 1
  33   15   21 ar
  34   15   16 ar
  35   16   17 ar
  36   16   47 1
  37   17   18 ar
  38   17   48 1
  39   18   19 1
  40   18   20 ar
  41   20   21 ar
  42   20   49 1
  43   21   50 1
  44   22   27 ar
  45   22   23 ar
  46   23   24 ar
  47   23   51 1
  48   24   25 ar
  49   24   52 1
  50   25   26 ar
  51   25   28 1
  52   26   27 ar
  53   26   53 1
  54   27   54 1
  55   28   29 am
  56   28   30 2
  57   28   31 2
  58   29   55 1
  59   29   56 1

#	End of record

