#	Name: ASD08710105
#	Creating user name:	WinNT
#	Creation time:	15. 06. 2019 21:19

#	Modifying user name:	WinNT
#	Modification time:	15. 06. 2019 21:19

#	Program:	/corina/corina34_cracker 3.40 0067  02.08.2006

@<TRIPOS>MOLECULE
ASD08710105
  56   59    0    0    0
SMALL
NO_CHARGES


@<TRIPOS>ATOM
   1 N1             0.0147     1.6760    -0.0518 N.3     
   2 C2            -0.2499     2.5669    -1.1910 C.3     
   3 C3             0.6083     2.1322    -2.3819 C.3     
   4 O4             0.3302     0.7634    -2.6891 O.3     
   5 C5             0.5775    -0.1323    -1.6020 C.3     
   6 C6            -0.2810     0.2794    -0.4031 C.3     
   7 C7            -0.7045     2.0700     1.0638 C.ar    
   8 C8            -0.5859     1.3459     2.2490 C.ar    
   9 C9            -1.2979     1.7385     3.3498 C.ar    
  10 C10           -2.1281     2.8651     3.2433 C.ar    
  11 C11           -2.1984     3.5425     2.0252 C.ar    
  12 N12           -1.4924     3.1341     0.9913 N.ar    
  13 C13           -2.9156     3.3265     4.4026 C.2     
  14 O14           -2.9973     4.5146     4.6480 O.2     
  15 N15           -3.5445     2.4311     5.1895 N.am    
  16 C16           -4.2246     2.8631     6.4185 C.3     
  17 C17           -5.6826     2.3902     6.3639 C.3     
  18 N18           -5.7008     0.9644     6.0080 N.am    
  19 C19           -5.0206     0.5325     4.7789 C.3     
  20 C20           -3.5675     1.0061     4.8306 C.3     
  21 S21           -6.4735    -0.1358     6.9748 S.o2    
  22 O22           -5.8740    -1.3960     6.7072 O.2     
  23 O23           -6.5275     0.4391     8.2732 O.2     
  24 C24           -8.1389    -0.2472     6.4104 C.ar    
  25 C25           -8.4792    -1.1699     5.4389 C.ar    
  26 C26           -9.7858    -1.2573     4.9961 C.ar    
  27 C27          -10.7522    -0.4223     5.5250 C.ar    
  28 C28          -10.4121     0.4997     6.4971 C.ar    
  29 C29           -9.1064     0.5841     6.9431 C.ar    
  30 C30          -12.1764    -0.5169     5.0415 C.3     
  31 F31          -12.8757    -1.4386     5.8282 F       
  32 F32          -12.7866     0.7381     5.1401 F       
  33 F33          -12.1890    -0.9381     3.7075 F       
  34 H34           -1.3042     2.5085    -1.4615 H       
  35 H35            0.0001     3.5919    -0.9171 H       
  36 H36            0.3737     2.7540    -3.2459 H       
  37 H37            1.6631     2.2416    -2.1297 H       
  38 H38            0.3206    -1.1483    -1.9018 H       
  39 H39            1.6314    -0.0888    -1.3270 H       
  40 H40           -0.0537    -0.3654     0.4459 H       
  41 H41           -1.3357     0.1845    -0.6610 H       
  42 H42            0.0616     0.4829     2.2980 H       
  43 H43           -1.2230     1.1935     4.2792 H       
  44 H44           -2.8336     4.4108     1.9308 H       
  45 H45           -3.7297     2.4233     7.2844 H       
  46 H46           -4.1951     3.9503     6.4902 H       
  47 H47           -6.1493     2.5298     7.3390 H       
  48 H48           -6.2247     2.9622     5.6108 H       
  49 H49           -5.0502    -0.5548     4.7072 H       
  50 H50           -5.5156     0.9722     3.9130 H       
  51 H51           -3.1041     0.8673     3.8539 H       
  52 H52           -3.0246     0.4311     5.5809 H       
  53 H53           -7.7242    -1.8223     5.0256 H       
  54 H54          -10.0515    -1.9777     4.2366 H       
  55 H55          -11.1670     1.1523     6.9102 H       
  56 H56           -8.8414     1.3020     7.7052 H       
@<TRIPOS>BOND
   1    1    2 1
   2    1    6 1
   3    1    7 1
   4    2    3 1
   5    2   34 1
   6    2   35 1
   7    3    4 1
   8    3   36 1
   9    3   37 1
  10    4    5 1
  11    5    6 1
  12    5   38 1
  13    5   39 1
  14    6   40 1
  15    6   41 1
  16    7    8 ar
  17    7   12 ar
  18    8    9 ar
  19    8   42 1
  20    9   10 ar
  21    9   43 1
  22   10   11 ar
  23   10   13 1
  24   11   12 ar
  25   11   44 1
  26   13   14 2
  27   13   15 am
  28   15   16 1
  29   15   20 1
  30   16   17 1
  31   16   45 1
  32   16   46 1
  33   17   18 1
  34   17   47 1
  35   17   48 1
  36   18   19 1
  37   18   21 am
  38   19   20 1
  39   19   49 1
  40   19   50 1
  41   20   51 1
  42   20   52 1
  43   21   22 2
  44   21   23 2
  45   21   24 1
  46   24   25 ar
  47   24   29 ar
  48   25   26 ar
  49   25   53 1
  50   26   27 ar
  51   26   54 1
  52   27   28 ar
  53   27   30 1
  54   28   29 ar
  55   28   55 1
  56   29   56 1
  57   30   31 1
  58   30   32 1
  59   30   33 1

#	End of record

