#	Name: ASD03540117
#	Creating user name:	WinNT
#	Creation time:	15. 06. 2019 20:42

#	Modifying user name:	WinNT
#	Modification time:	15. 06. 2019 20:42

#	Program:	/corina/corina34_cracker 3.40 0067  02.08.2006

@<TRIPOS>MOLECULE
ASD03540117
  57   60    0    0    0
SMALL
NO_CHARGES


@<TRIPOS>ATOM
   1 C1            -0.0179     1.4722     0.0101 C.2     
   2 C2             0.0021    -0.0041     0.0020 C.ar    
   3 C3             1.2180    -0.6841    -0.0132 C.ar    
   4 C4             1.2312    -2.0766    -0.0204 C.ar    
   5 C5             2.5146    -2.8050    -0.0361 C.2     
   6 C6             0.0191    -2.7850    -0.0122 C.ar    
   7 C7            -1.1873    -2.0967     0.0031 C.ar    
   8 C8            -1.2000    -0.7201     0.0155 C.ar    
   9 O9             1.0266     2.0944     0.0035 O.2     
  10 N10           -1.1942     2.1301     0.0193 N.am    
  11 O11            2.5235    -4.0208    -0.0423 O.2     
  12 N12            3.6767    -2.1225    -0.0435 N.am    
  13 C13            4.9508    -2.8455    -0.0590 C.3     
  14 C14            6.1063    -1.8427    -0.0648 C.3     
  15 O15            6.1043    -1.1066     1.1600 O.3     
  16 C16            7.0740    -0.1675     1.3171 C.ar    
  17 C17            7.1313     0.5840     2.4818 C.ar    
  18 C18            8.1180     1.5380     2.6390 C.ar    
  19 C19            9.0479     1.7442     1.6368 C.ar    
  20 C20            8.9926     0.9968     0.4748 C.ar    
  21 C21            8.0116     0.0373     0.3153 C.ar    
  22 O22            0.0261    -4.1398    -0.0195 O.3     
  23 C23           -1.2437    -4.7952    -0.0104 C.3     
  24 C24           -1.2140     3.5950     0.0273 C.3     
  25 O25           -6.5319     5.3937     0.3232 O.3     
  26 C26           -6.5045     5.8144     1.7000 C.3     
  27 O27           -5.4520     5.0208     2.2794 O.3     
  28 C28           -4.6011     4.7368     1.2505 C.ar    
  29 C29           -5.2652     4.9661     0.0476 C.ar    
  30 C30           -3.2893     4.2925     1.2394 C.ar    
  31 C31           -2.6415     4.0779     0.0367 C.ar    
  32 C32           -3.3002     4.3059    -1.1567 C.ar    
  33 C33           -4.6101     4.7491    -1.1533 C.ar    
  34 H34            2.1469    -0.1333    -0.0199 H       
  35 H35           -2.1187    -2.6434     0.0090 H       
  36 H36           -2.1413    -0.1909     0.0315 H       
  37 H37           -2.0275     1.6338     0.0205 H       
  38 H38            3.6696    -1.1525    -0.0385 H       
  39 H39            5.0214    -3.4762     0.8271 H       
  40 H40            5.0048    -3.4672    -0.9527 H       
  41 H41            7.0508    -2.3773    -0.1659 H       
  42 H42            5.9865    -1.1552    -0.9021 H       
  43 H43            6.4050     0.4236     3.2648 H       
  44 H44            8.1628     2.1235     3.5454 H       
  45 H45            9.8185     2.4905     1.7616 H       
  46 H46            9.7197     1.1602    -0.3069 H       
  47 H47            7.9718    -0.5496    -0.5904 H       
  48 H48           -1.0953    -5.8750    -0.0177 H       
  49 H49           -1.7933    -4.5100     0.8866 H       
  50 H50           -1.8110    -4.5004    -0.8932 H       
  51 H51           -0.7010     3.9604     0.9169 H       
  52 H52           -0.7094     3.9701    -0.8630 H       
  53 H53           -6.2674     6.8759     1.7714 H       
  54 H54           -7.4569     5.6002     2.1849 H       
  55 H55           -2.7719     4.1143     2.1705 H       
  56 H56           -2.7909     4.1371    -2.0940 H       
  57 H57           -5.1226     4.9257    -2.0874 H       
@<TRIPOS>BOND
   1    1    2 1
   2    1    9 2
   3    1   10 am
   4    2    3 ar
   5    2    8 ar
   6    3    4 ar
   7    3   34 1
   8    4    5 1
   9    4    6 ar
  10    5   11 2
  11    5   12 am
  12    6    7 ar
  13    6   22 1
  14    7    8 ar
  15    7   35 1
  16    8   36 1
  17   10   24 1
  18   10   37 1
  19   12   13 1
  20   12   38 1
  21   13   14 1
  22   13   39 1
  23   13   40 1
  24   14   15 1
  25   14   41 1
  26   14   42 1
  27   15   16 1
  28   16   17 ar
  29   16   21 ar
  30   17   18 ar
  31   17   43 1
  32   18   19 ar
  33   18   44 1
  34   19   20 ar
  35   19   45 1
  36   20   21 ar
  37   20   46 1
  38   21   47 1
  39   22   23 1
  40   23   48 1
  41   23   49 1
  42   23   50 1
  43   24   31 1
  44   24   51 1
  45   24   52 1
  46   25   26 1
  47   25   29 1
  48   26   27 1
  49   26   53 1
  50   26   54 1
  51   27   28 1
  52   28   29 ar
  53   28   30 ar
  54   29   33 ar
  55   30   31 ar
  56   30   55 1
  57   31   32 ar
  58   32   33 ar
  59   32   56 1
  60   33   57 1

#	End of record

