#	Name: ASD01913837
#	Creating user name:	WinNT
#	Creation time:	15. 06. 2019 20:02

#	Modifying user name:	WinNT
#	Modification time:	15. 06. 2019 20:02

#	Program:	/corina/corina34_cracker 3.40 0067  02.08.2006

@<TRIPOS>MOLECULE
ASD01913837
  43   45    0    0    0
SMALL
NO_CHARGES


@<TRIPOS>ATOM
   1 C1            -0.0203     1.4274     0.0502 C.ar    
   2 C2             0.0001    -0.0044     0.0303 C.1     
   3 C3             0.0168    -1.1781     0.0141 C.1     
   4 C4             0.0371    -2.6098    -0.0058 C.ar    
   5 C5            -1.1393    -3.3355    -0.2455 C.ar    
   6 C6             0.1561    -5.3344    -0.0280 C.ar    
   7 N7             1.2510    -4.6214     0.1893 N.ar    
   8 C8             1.2297    -3.3050     0.2074 C.ar    
   9 C9            -1.0689    -4.7141    -0.2547 C.ar    
  10 N10            0.2332    -6.7251    -0.0369 N.am    
  11 C11           -0.8327    -7.5439    -0.0256 C.2     
  12 C12           -0.3803    -8.9873    -0.0506 C.3     
  13 C13            1.0980    -8.9136    -0.4978 C.3     
  14 C14            1.4887    -7.4846    -0.0662 C.3     
  15 O15           -1.9889    -7.1787     0.0011 O.2     
  16 C16            1.1506     2.1514     0.2887 C.ar    
  17 N17            1.1318     3.4679     0.3070 N.ar    
  18 C18           -1.1789     3.5099    -0.1450 C.ar    
  19 C19           -1.2139     2.1264    -0.1751 C.ar    
  20 C20            0.0225     4.1523     0.1039 C.ar    
  21 C21            1.9433    -9.9601     0.2310 C.3     
  22 C22            1.2199    -9.0741    -2.0145 C.3     
  23 O23           -0.4805    -9.5653     1.2524 O.3     
  24 C24           -1.7310   -10.2075     1.5089 C.3     
  25 Cl25          -2.6256     4.4300    -0.4176 Cl      
  26 H26           -2.0770    -2.8282    -0.4181 H       
  27 H27            2.1429    -2.7576     0.3886 H       
  28 H28           -1.9547    -5.3049    -0.4355 H       
  29 H29           -0.9682    -9.5589    -0.7688 H       
  30 H30            2.1815    -7.0492    -0.7863 H       
  31 H31            1.9365    -7.4999     0.9274 H       
  32 H32            2.0790     1.6268     0.4599 H       
  33 H33           -2.1367     1.5995    -0.3675 H       
  34 H34            0.0526     5.2316     0.1280 H       
  35 H35            1.5599   -10.9559     0.0088 H       
  36 H36            2.9787    -9.8868    -0.1018 H       
  37 H37            1.8937    -9.7831     1.3054 H       
  38 H38            0.6645    -8.2777    -2.5099 H       
  39 H39            2.2696    -9.0185    -2.3026 H       
  40 H40            0.8123   -10.0404    -2.3116 H       
  41 H41           -1.7274   -10.6202     2.5177 H       
  42 H42           -2.5382    -9.4808     1.4165 H       
  43 H43           -1.8814   -11.0112     0.7881 H       
@<TRIPOS>BOND
   1    1    2 1
   2    1   16 ar
   3    1   19 ar
   4    2    3 3
   5    3    4 1
   6    4    5 ar
   7    4    8 ar
   8    5    9 ar
   9    5   26 1
  10    6    7 ar
  11    6   10 1
  12    6    9 ar
  13    7    8 ar
  14    8   27 1
  15    9   28 1
  16   10   11 am
  17   10   14 1
  18   11   12 1
  19   11   15 2
  20   12   13 1
  21   12   23 1
  22   12   29 1
  23   13   14 1
  24   13   21 1
  25   13   22 1
  26   14   30 1
  27   14   31 1
  28   16   17 ar
  29   16   32 1
  30   17   20 ar
  31   18   19 ar
  32   18   25 1
  33   18   20 ar
  34   19   33 1
  35   20   34 1
  36   21   35 1
  37   21   36 1
  38   21   37 1
  39   22   38 1
  40   22   39 1
  41   22   40 1
  42   23   24 1
  43   24   41 1
  44   24   42 1
  45   24   43 1

#	End of record

