#	Name: ASD04880244
#	Creating user name:	WinNT
#	Creation time:	15. 06. 2019 20:53

#	Modifying user name:	WinNT
#	Modification time:	15. 06. 2019 20:53

#	Program:	/corina/corina34_cracker 3.40 0067  02.08.2006

@<TRIPOS>MOLECULE
ASD04880244
  53   54    0    0    0
SMALL
NO_CHARGES


@<TRIPOS>ATOM
   1 C1            -0.0127     1.0858     0.0080 C.3     
   2 H2             0.0021    -0.0041     0.0020 H       
   3 H3             1.0099     1.4631     0.0003 H       
   4 H4            -0.5399     1.4469    -0.8751 H       
   5 H5            -0.5229     1.4373     0.9048 H       
   6 C6             9.2240    11.6108     8.1443 C.ar    
   7 C7             9.2428    10.2240     8.1366 C.ar    
   8 C8            10.4569     9.5402     8.1219 C.ar    
   9 C9            11.6463    10.2437     8.1148 C.ar    
  10 C10           11.6278    11.6412     8.1220 C.ar    
  11 C11           10.4070    12.3199     8.1368 C.ar    
  12 O12           10.4713     8.1803     8.1149 O.3     
  13 C13           11.7513     7.5451     8.0997 C.3     
  14 C14            6.8662    10.2937     8.1597 C.3     
  15 O15            8.0739     9.5301     8.1440 O.3     
  16 C16           12.8935    12.3971     8.1149 C.2     
  17 C17           13.0095    13.9046     8.1216 C.3     
  18 C18           14.5296    14.1602     8.1108 C.3     
  19 N19           15.1071    12.8067     8.0994 N.am    
  20 N20           14.0712    11.8749     8.1078 N.2     
  21 C21           16.4231    12.5159     8.0871 C.2     
  22 C22           16.8772    11.0790     8.0764 C.3     
  23 O23           17.2420    13.4109     8.0847 O.2     
  24 C24           18.3832    11.0282     8.0636 C.ar    
  25 C25           19.0829    10.9992     9.2558 C.ar    
  26 C26           20.4636    10.9526     9.2469 C.ar    
  27 C27           21.1480    10.9350     8.0403 C.ar    
  28 C28           20.4436    10.9643     6.8454 C.ar    
  29 C29           19.0629    11.0051     6.8598 C.ar    
  30 O30           22.5062    10.8897     8.0288 O.3     
  31 C31           23.1440    10.8740     6.7501 C.3     
  32 H32            8.2807    12.1367     8.1516 H       
  33 H33           12.5879     9.7149     8.1040 H       
  34 H34           10.3895    13.3998     8.1431 H       
  35 H35           12.3135     7.8394     8.9860 H       
  36 H36           11.6200     6.4631     8.0955 H       
  37 H37           12.2969     7.8484     7.2061 H       
  38 H38            6.8422    10.9174     9.0533 H       
  39 H39            6.8252    10.9269     7.2734 H       
  40 H40            6.0099     9.6193     8.1642 H       
  41 H41           12.5443    14.3278     7.2313 H       
  42 H42           12.5585    14.3188     9.0233 H       
  43 H43           14.8200    14.7086     7.2147 H       
  44 H44           14.8343    14.6997     9.0076 H       
  45 H45           16.5041    10.5734     8.9671 H       
  46 H46           16.4893    10.5820     7.1872 H       
  47 H47           18.5496    11.0132    10.1949 H       
  48 H48           21.0096    10.9303    10.1784 H       
  49 H49           20.9742    10.9507     5.9048 H       
  50 H50           18.5139    11.0230     5.9299 H       
  51 H51           22.8169     9.9969     6.1917 H       
  52 H52           22.8764    11.7758     6.1995 H       
  53 H53           24.2251    10.8372     6.8838 H       
@<TRIPOS>BOND
   1    1    2 1
   2    1    3 1
   3    1    4 1
   4    1    5 1
   5    6    7 ar
   6    6   11 ar
   7    6   32 1
   8    7   15 1
   9    7    8 ar
  10    8    9 ar
  11    8   12 1
  12    9   10 ar
  13    9   33 1
  14   10   11 ar
  15   10   16 1
  16   11   34 1
  17   12   13 1
  18   13   35 1
  19   13   36 1
  20   13   37 1
  21   14   15 1
  22   14   38 1
  23   14   39 1
  24   14   40 1
  25   16   17 1
  26   16   20 2
  27   17   18 1
  28   17   41 1
  29   17   42 1
  30   18   19 1
  31   18   43 1
  32   18   44 1
  33   19   20 1
  34   19   21 am
  35   21   22 1
  36   21   23 2
  37   22   24 1
  38   22   45 1
  39   22   46 1
  40   24   25 ar
  41   24   29 ar
  42   25   26 ar
  43   25   47 1
  44   26   27 ar
  45   26   48 1
  46   27   28 ar
  47   27   30 1
  48   28   29 ar
  49   28   49 1
  50   29   50 1
  51   30   31 1
  52   31   51 1
  53   31   52 1
  54   31   53 1

#	End of record

