#	Name: ASD01000104
#	Creating user name:	WinNT
#	Creation time:	15. 06. 2019 18:54

#	Modifying user name:	WinNT
#	Modification time:	15. 06. 2019 18:54

#	Program:	/corina/corina34_cracker 3.40 0067  02.08.2006

@<TRIPOS>MOLECULE
ASD01000104
  47   50    0    0    0
SMALL
NO_CHARGES


@<TRIPOS>ATOM
   1 C1             0.0177     1.2713    -1.0211 C.ar    
   2 C2             0.0272    -0.0844    -0.7328 C.ar    
   3 C3             1.2227    -0.7349    -0.4961 C.ar    
   4 C4             2.4225    -0.0242    -0.5482 C.ar    
   5 C5             2.4060     1.3423    -0.8399 C.ar    
   6 C6             1.2027     1.9813    -1.0743 C.ar    
   7 C7             3.7055    -0.7139    -0.2955 C.2     
   8 S8             3.9335    -2.4350     0.0895 S.3     
   9 F9             3.5632     2.0375    -0.8917 F       
  10 F10           -1.1352    -0.7711    -0.6827 F       
  11 N11            4.8890    -0.1860    -0.3159 N.2     
  12 N12            6.0215    -0.9326    -0.0626 N.am    
  13 C13            5.7543    -2.3465     0.2210 C.3     
  14 C14            6.1988    -2.7216     1.6277 C.3     
  15 C15            7.7211    -2.9212     1.6177 C.3     
  16 O16            8.0281    -4.0155     0.7528 O.3     
  17 C17            7.4876    -4.0185    -0.4937 C.ar    
  18 C18            6.3873    -3.2361    -0.8077 C.ar    
  19 C19            8.0590    -4.8293    -1.4677 C.ar    
  20 C20            7.5337    -4.8584    -2.7453 C.ar    
  21 C21            6.4316    -4.0761    -3.0568 C.ar    
  22 C22            5.8626    -3.2696    -2.0894 C.ar    
  23 F23            5.9150    -4.1022    -4.3049 F       
  24 C24            7.2643    -0.4090    -0.0773 C.2     
  25 O25            8.2310    -1.1383     0.0031 O.2     
  26 C26            7.4527     1.0816    -0.1936 C.3     
  27 C27            5.8327    -1.5988     2.6004 C.3     
  28 C28            6.1678    -2.0321     4.0290 C.3     
  29 N29            5.8163    -0.9540     4.9629 N.3     
  30 F30            8.0928    -5.6468    -3.6892 F       
  31 H31           -0.9193     1.7742    -1.2094 H       
  32 H32            1.2287    -1.7912    -0.2709 H       
  33 H33            1.1885     3.0373    -1.3001 H       
  34 H34            5.7093    -3.6465     1.9330 H       
  35 H35            8.2067    -2.0169     1.2508 H       
  36 H36            8.0682    -3.1432     2.6268 H       
  37 H37            8.9170    -5.4385    -1.2248 H       
  38 H38            5.0038    -2.6622    -2.3340 H       
  39 H39            7.4753     1.5238     0.8024 H       
  40 H40            8.3922     1.2903    -0.7052 H       
  41 H41            6.6267     1.5089    -0.7622 H       
  42 H42            6.3997    -0.7021     2.3502 H       
  43 H43            4.7661    -1.3868     2.5258 H       
  44 H44            5.6008    -2.9288     4.2791 H       
  45 H45            7.2344    -2.2441     4.1036 H       
  46 H46            4.8460    -0.6947     4.8670 H       
  47 H47            6.0284    -1.2161     5.9139 H       
@<TRIPOS>BOND
   1    1    2 ar
   2    1    6 ar
   3    1   31 1
   4    2    3 ar
   5    2   10 1
   6    3    4 ar
   7    3   32 1
   8    4    5 ar
   9    4    7 1
  10    5    6 ar
  11    5    9 1
  12    6   33 1
  13    7    8 1
  14    7   11 2
  15    8   13 1
  16   11   12 1
  17   12   24 am
  18   12   13 1
  19   13   14 1
  20   13   18 1
  21   14   15 1
  22   14   27 1
  23   14   34 1
  24   15   16 1
  25   15   35 1
  26   15   36 1
  27   16   17 1
  28   17   18 ar
  29   17   19 ar
  30   18   22 ar
  31   19   20 ar
  32   19   37 1
  33   20   21 ar
  34   20   30 1
  35   21   22 ar
  36   21   23 1
  37   22   38 1
  38   24   25 2
  39   24   26 1
  40   26   39 1
  41   26   40 1
  42   26   41 1
  43   27   28 1
  44   27   42 1
  45   27   43 1
  46   28   29 1
  47   28   44 1
  48   28   45 1
  49   29   46 1
  50   29   47 1

#	End of record

