#	Name: ASD01913404
#	Creating user name:	WinNT
#	Creation time:	15. 06. 2019 20:01

#	Modifying user name:	WinNT
#	Modification time:	15. 06. 2019 20:01

#	Program:	/corina/corina34_cracker 3.40 0067  02.08.2006

@<TRIPOS>MOLECULE
ASD01913404
  39   41    0    0    0
SMALL
NO_CHARGES


@<TRIPOS>ATOM
   1 C1            -0.1036    -0.7287    -2.1552 C.ar    
   2 C2            -0.5384    -0.0393    -1.0278 C.ar    
   3 C3            -0.5026     1.3480    -1.0309 C.ar    
   4 N4            -0.0641     2.0070    -2.0848 N.ar    
   5 C5             0.3550     1.3839    -3.1689 C.ar    
   6 C6             0.3499     0.0036    -3.2407 C.ar    
   7 C7            -1.0078    -2.0724     0.0082 C.ar    
   8 C8             0.1678    -2.7876     0.1930 C.ar    
   9 C9             0.1568    -4.1696     0.1463 C.ar    
  10 C10           -1.0226    -4.8471    -0.0846 C.ar    
  11 C11           -2.2100    -4.1367    -0.2716 C.ar    
  12 C12           -2.1977    -2.7426    -0.2238 C.ar    
  13 C13           -3.4754    -4.8592    -0.5197 C.2     
  14 N14           -3.4845    -6.2061    -0.5658 N.am    
  15 C15           -4.6911    -6.8906    -0.6938 C.ar    
  16 O16           -4.5078    -4.2386    -0.6822 O.2     
  17 O17           -0.9922    -0.7146     0.0607 O.3     
  18 C18           -4.7053    -8.2778    -0.6237 C.ar    
  19 C19           -5.9103    -8.9493    -0.7521 C.ar    
  20 C20           -7.0643    -8.2078    -0.9471 C.ar    
  21 C21           -6.9793    -6.8235    -1.0075 C.ar    
  22 N22           -5.8138    -6.2117    -0.8758 N.ar    
  23 O23           -8.1045    -6.0898    -1.1981 O.3     
  24 C24           -7.9519    -4.6699    -1.2512 C.3     
  25 H25           -0.1149    -1.8083    -2.1821 H       
  26 H26           -0.8378     1.8932    -0.1610 H       
  27 H27            0.7070     1.9599    -4.0120 H       
  28 H28            0.6950    -0.4983    -4.1326 H       
  29 H29            1.0942    -2.2626     0.3734 H       
  30 H30            1.0746    -4.7203     0.2908 H       
  31 H31           -1.0273    -5.9265    -0.1211 H       
  32 H32           -3.1129    -2.1875    -0.3673 H       
  33 H33           -2.6509    -6.6990    -0.5099 H       
  34 H34           -3.7877    -8.8265    -0.4711 H       
  35 H35           -5.9492   -10.0275    -0.7017 H       
  36 H36           -8.0194    -8.7012    -1.0513 H       
  37 H37           -7.2875    -4.4064    -2.0741 H       
  38 H38           -8.9256    -4.2055    -1.4073 H       
  39 H39           -7.5263    -4.3149    -0.3126 H       
@<TRIPOS>BOND
   1    1    2 ar
   2    1    6 ar
   3    1   25 1
   4    2    3 ar
   5    2   17 1
   6    3    4 ar
   7    3   26 1
   8    4    5 ar
   9    5    6 ar
  10    5   27 1
  11    6   28 1
  12    7    8 ar
  13    7   12 ar
  14    7   17 1
  15    8    9 ar
  16    8   29 1
  17    9   10 ar
  18    9   30 1
  19   10   11 ar
  20   10   31 1
  21   11   12 ar
  22   11   13 1
  23   12   32 1
  24   13   14 am
  25   13   16 2
  26   14   15 1
  27   14   33 1
  28   15   18 ar
  29   15   22 ar
  30   18   19 ar
  31   18   34 1
  32   19   20 ar
  33   19   35 1
  34   20   21 ar
  35   20   36 1
  36   21   22 ar
  37   21   23 1
  38   23   24 1
  39   24   37 1
  40   24   38 1
  41   24   39 1

#	End of record

