#	Name: ASD02198304
#	Creating user name:	WinNT
#	Creation time:	15. 06. 2019 20:19

#	Modifying user name:	WinNT
#	Modification time:	15. 06. 2019 20:19

#	Program:	/corina/corina34_cracker 3.40 0067  02.08.2006

@<TRIPOS>MOLECULE
ASD02198304
  42   44    0    0    0
SMALL
NO_CHARGES


@<TRIPOS>ATOM
   1 C1             0.4589     1.7176     0.0417 C.2     
   2 C2             0.5485     0.3435     0.1615 C.2     
   3 S3             2.0801     2.3789     0.2367 S.3     
   4 C4             2.7132     0.8069     0.4543 C.2     
   5 N5             1.7693    -0.0867     0.3801 N.2     
   6 N6            -0.5466    -0.5000     0.0608 N.pl3   
   7 C7            -0.7160     2.4557    -0.1991 C.2     
   8 C8            -0.6811     3.9332    -0.1634 C.ar    
   9 O9            -1.7623     1.8761    -0.4371 O.2     
  10 N10            4.0425     0.5233     0.6781 N.pl3   
  11 C11            4.4456    -0.7937     0.9166 C.ar    
  12 C12            3.7812    -1.8473     0.3017 C.ar    
  13 C13           -1.5860     4.6731    -0.9274 C.ar    
  14 C14            0.2531     4.5918     0.6389 C.ar    
  15 C15            0.2820     5.9730     0.6690 C.ar    
  16 C16           -0.6202     6.7056    -0.1004 C.ar    
  17 C17           -1.5521     6.0506    -0.8936 C.ar    
  18 C18            4.1820    -3.1473     0.5396 C.ar    
  19 C19            5.2436    -3.4007     1.3888 C.ar    
  20 C20            5.9070    -2.3542     2.0030 C.ar    
  21 C21            5.5152    -1.0515     1.7646 C.ar    
  22 O22           -0.5911     8.0633    -0.0696 O.3     
  23 C23           -1.5440     8.7513    -0.8825 C.3     
  24 O24            1.1902     6.6174     1.4496 O.3     
  25 C25            2.0838     5.8036     2.2120 C.3     
  26 H26           -1.4292    -0.1317    -0.1014 H       
  27 H27           -0.4305    -1.4587     0.1525 H       
  28 H28            4.6988     1.2375     0.6701 H       
  29 H29            2.9518    -1.6501    -0.3614 H       
  30 H30           -2.3123     4.1659    -1.5452 H       
  31 H31            0.9514     4.0229     1.2349 H       
  32 H32           -2.2494     6.6215    -1.4887 H       
  33 H33            3.6657    -3.9669     0.0621 H       
  34 H34            5.5551    -4.4183     1.5732 H       
  35 H35            6.7354    -2.5556     2.6659 H       
  36 H36            6.0339    -0.2347     2.2443 H       
  37 H37           -1.3943     8.4787    -1.9272 H       
  38 H38           -2.5520     8.4728    -0.5753 H       
  39 H39           -1.4124     9.8269    -0.7652 H       
  40 H40            2.7539     6.4414     2.7885 H       
  41 H41            1.5106     5.1717     2.8904 H       
  42 H42            2.6687     5.1770     1.5386 H       
@<TRIPOS>BOND
   1    1    2 2
   2    1    3 1
   3    1    7 1
   4    2    6 1
   5    2    5 1
   6    3    4 1
   7    4    5 2
   8    4   10 1
   9    6   26 1
  10    6   27 1
  11    7    8 1
  12    7    9 2
  13    8   13 ar
  14    8   14 ar
  15   10   11 1
  16   10   28 1
  17   11   12 ar
  18   11   21 ar
  19   12   18 ar
  20   12   29 1
  21   13   17 ar
  22   13   30 1
  23   14   15 ar
  24   14   31 1
  25   15   16 ar
  26   15   24 1
  27   16   17 ar
  28   16   22 1
  29   17   32 1
  30   18   19 ar
  31   18   33 1
  32   19   20 ar
  33   19   34 1
  34   20   21 ar
  35   20   35 1
  36   21   36 1
  37   22   23 1
  38   23   37 1
  39   23   38 1
  40   23   39 1
  41   24   25 1
  42   25   40 1
  43   25   41 1
  44   25   42 1

#	End of record

