#	Name: ASD01910997
#	Creating user name:	WinNT
#	Creation time:	15. 06. 2019 19:56

#	Modifying user name:	WinNT
#	Modification time:	15. 06. 2019 19:56

#	Program:	/corina/corina34_cracker 3.40 0067  02.08.2006

@<TRIPOS>MOLECULE
ASD01910997
  55   58    0    0    0
SMALL
NO_CHARGES


@<TRIPOS>ATOM
   1 N1            -4.4817    -3.3056     1.1933 N.3     
   2 C2            -3.1104    -2.8183     1.3931 C.3     
   3 C3            -2.4410    -2.6132     0.0299 C.3     
   4 N4            -3.2989    -1.7396    -0.7851 N.am    
   5 C5            -4.7212    -2.0896    -0.9189 C.3     
   6 C6            -5.3008    -2.3153     0.4816 C.3     
   7 C7            -2.7952    -0.6473    -1.3929 C.2     
   8 C8            -3.6402     0.1429    -2.3101 C.ar    
   9 C9            -3.5699     1.5395    -2.2974 C.ar    
  10 C10           -4.3563     2.2821    -3.1513 C.ar    
  11 C11           -5.2243     1.6500    -4.0299 C.ar    
  12 C12           -5.3040     0.2477    -4.0514 C.ar    
  13 C13           -4.5043    -0.5034    -3.1930 C.ar    
  14 C14           -6.1994    -0.4074    -4.9569 C.1     
  15 O15           -1.6448    -0.3125    -1.1858 O.2     
  16 C16           -6.9334    -0.9445    -5.6992 C.1     
  17 C17           -7.8287    -1.5996    -6.6046 C.ar    
  18 N18           -7.8985    -2.9275    -6.6190 N.ar    
  19 C19           -8.7094    -3.5666    -7.4371 C.ar    
  20 C20           -9.5222    -2.8751    -8.3163 C.ar    
  21 C21           -9.4820    -1.4871    -8.3353 C.ar    
  22 C22           -8.6273    -0.8387    -7.4630 C.ar    
  23 C23           -5.0670    -3.6584     2.4051 C.ar    
  24 O24           -5.9961     2.3860    -4.8675 O.3     
  25 N25           -4.8055    -2.9483     3.4910 N.ar    
  26 C26           -5.3395    -3.2486     4.6602 C.ar    
  27 C27           -6.1969    -4.3232     4.7924 C.ar    
  28 C28           -6.4978    -5.0949     3.6764 C.ar    
  29 C29           -5.9270    -4.7518     2.4634 C.ar    
  30 C30           -5.8639     3.8068    -4.7913 C.3     
  31 C31           -6.8061     4.4617    -5.8033 C.3     
  32 Cl32          -6.8912    -4.7064     6.3367 Cl      
  33 Cl33          -6.2681    -5.6800     1.0366 Cl      
  34 H34           -3.1359    -1.8712     1.9320 H       
  35 H35           -2.5447    -3.5502     1.9696 H       
  36 H36           -1.4666    -2.1445     0.1673 H       
  37 H37           -2.3207    -3.5756    -0.4674 H       
  38 H38           -5.2542    -1.2747    -1.4088 H       
  39 H39           -4.8200    -3.0017    -1.5074 H       
  40 H40           -6.3236    -2.6824     0.3971 H       
  41 H41           -5.2957    -1.3752     1.0332 H       
  42 H42           -2.8969     2.0381    -1.6156 H       
  43 H43           -4.2970     3.3603    -3.1363 H       
  44 H44           -4.5606    -1.5819    -3.2044 H       
  45 H45           -8.7394    -4.6461    -7.4210 H       
  46 H46          -10.1825    -3.4100    -8.9828 H       
  47 H47          -10.1079    -0.9262    -9.0136 H       
  48 H48           -8.5712     0.2398    -7.4511 H       
  49 H49           -5.1025    -2.6464     5.5248 H       
  50 H50           -7.1654    -5.9404     3.7532 H       
  51 H51           -6.1202     4.1421    -3.7863 H       
  52 H52           -4.8355     4.0886    -5.0171 H       
  53 H53           -6.5498     4.1263    -6.8083 H       
  54 H54           -7.8346     4.1799    -5.5775 H       
  55 H55           -6.7053     5.5455    -5.7452 H       
@<TRIPOS>BOND
   1    1    2 1
   2    1   23 1
   3    1    6 1
   4    2    3 1
   5    2   34 1
   6    2   35 1
   7    3    4 1
   8    3   36 1
   9    3   37 1
  10    4    5 1
  11    4    7 am
  12    5    6 1
  13    5   38 1
  14    5   39 1
  15    6   40 1
  16    6   41 1
  17    7    8 1
  18    7   15 2
  19    8    9 ar
  20    8   13 ar
  21    9   10 ar
  22    9   42 1
  23   10   11 ar
  24   10   43 1
  25   11   12 ar
  26   11   24 1
  27   12   13 ar
  28   12   14 1
  29   13   44 1
  30   14   16 3
  31   16   17 1
  32   17   18 ar
  33   17   22 ar
  34   18   19 ar
  35   19   20 ar
  36   19   45 1
  37   20   21 ar
  38   20   46 1
  39   21   22 ar
  40   21   47 1
  41   22   48 1
  42   23   25 ar
  43   23   29 ar
  44   24   30 1
  45   25   26 ar
  46   26   27 ar
  47   26   49 1
  48   27   28 ar
  49   27   32 1
  50   28   29 ar
  51   28   50 1
  52   29   33 1
  53   30   31 1
  54   30   51 1
  55   30   52 1
  56   31   53 1
  57   31   54 1
  58   31   55 1

#	End of record

