#	Name: ASD03330990
#	Creating user name:	WinNT
#	Creation time:	15. 06. 2019 20:38

#	Modifying user name:	WinNT
#	Modification time:	15. 06. 2019 20:38

#	Program:	/corina/corina34_cracker 3.40 0067  02.08.2006

@<TRIPOS>MOLECULE
ASD03330990
  67   70    0    0    0
SMALL
NO_CHARGES


@<TRIPOS>ATOM
   1 N1            -0.1144     1.2727     0.4300 N.pl3   
   2 C2            -0.0295    -0.0794     0.3153 C.2     
   3 C3             1.2461    -0.8805     0.2992 C.3     
   4 N4             2.1115    -0.4313     1.4009 N.3     
   5 C5             2.9739     0.6748     0.9807 C.3     
   6 C6             2.2644     1.5639    -0.0367 C.3     
   7 C7             1.0186     2.1869     0.5990 C.3     
   8 C8            -1.4363     1.6057     0.3704 C.2     
   9 N9            -2.1401     0.5053     0.2427 N.2     
  10 C10           -1.3015    -0.5535     0.2083 C.2     
  11 C11           -1.6933    -1.9680     0.0783 C.2     
  12 O12           -0.8413    -2.8357     0.0593 O.2     
  13 N13           -2.9958    -2.3003    -0.0196 N.am    
  14 C14            2.9067    -1.5457     1.9336 C.3     
  15 C15           -4.7249    -3.7960    -0.8333 C.2     
  16 C16           -3.3853    -3.7066    -0.1488 C.3     
  17 C17           -3.4795    -4.3395     1.2410 C.3     
  18 C18           -4.0184    -5.7661     1.1163 C.3     
  19 O19           -5.5738    -2.9573    -0.6165 O.2     
  20 C20           -2.0903    -4.3733     1.8812 C.3     
  21 C21           -4.4239    -3.5122     2.1152 C.3     
  22 N22           -4.9797    -4.8079    -1.6863 N.am    
  23 C23           -6.2722    -5.0792    -2.3323 C.3     
  24 C24           -6.0956    -6.3454    -3.1966 C.3     
  25 C25           -4.8708    -7.0417    -2.5467 C.3     
  26 C26           -4.0067    -5.8222    -2.1311 C.3     
  27 F27           -7.2291    -7.1615    -3.1165 F       
  28 F28           -5.8231    -6.0035    -4.5256 F       
  29 C29           -1.9846     2.9776     0.4388 C.ar    
  30 C30           -2.9539     3.3925    -0.4784 C.ar    
  31 C31           -3.4621     4.6759    -0.4090 C.ar    
  32 C32           -3.0134     5.5487     0.5653 C.ar    
  33 C33           -2.0525     5.1434     1.4775 C.ar    
  34 C34           -1.5405     3.8611     1.4226 C.ar    
  35 F35           -1.6194     6.0021     2.4264 F       
  36 F36           -3.3929     2.5410    -1.4310 F       
  37 H37            1.0139    -1.9379     0.4262 H       
  38 H38            1.7586    -0.7305    -0.6511 H       
  39 H39            3.2415     1.2715     1.8527 H       
  40 H40            3.8814     0.2708     0.5320 H       
  41 H41            2.9406     2.3553    -0.3601 H       
  42 H42            1.9705     0.9650    -0.8986 H       
  43 H43            0.7968     3.1362     0.1114 H       
  44 H44            1.1965     2.3544     1.6612 H       
  45 H45           -3.6753    -1.6082    -0.0044 H       
  46 H46            3.4808    -2.0008     1.1266 H       
  47 H47            3.5879    -1.1729     2.6986 H       
  48 H48            2.2415    -2.2902     2.3710 H       
  49 H49           -2.6391    -4.2374    -0.7400 H       
  50 H50           -3.3049    -6.3769     0.5632 H       
  51 H51           -4.1637    -6.1878     2.1108 H       
  52 H52           -4.9705    -5.7497     0.5859 H       
  53 H53           -1.7063    -3.3571     1.9700 H       
  54 H54           -2.1573    -4.8242     2.8713 H       
  55 H55           -1.4174    -4.9628     1.2583 H       
  56 H56           -5.4136    -3.4881     1.6591 H       
  57 H57           -4.4910    -3.9631     3.1053 H       
  58 H58           -4.0400    -2.4959     2.2041 H       
  59 H59           -7.0365    -5.2513    -1.5744 H       
  60 H60           -6.5556    -4.2365    -2.9628 H       
  61 H61           -5.1700    -7.6273    -1.6774 H       
  62 H62           -4.3442    -7.6626    -3.2716 H       
  63 H63           -3.4348    -5.4519    -2.9819 H       
  64 H64           -3.3392    -6.0921    -1.3128 H       
  65 H65           -4.2110     4.9979    -1.1174 H       
  66 H66           -3.4134     6.5506     0.6150 H       
  67 H67           -0.7948     3.5450     2.1371 H       
@<TRIPOS>BOND
   1    1    2 1
   2    1    7 1
   3    1    8 1
   4    2    3 1
   5    2   10 2
   6    3    4 1
   7    3   37 1
   8    3   38 1
   9    4    5 1
  10    4   14 1
  11    5    6 1
  12    5   39 1
  13    5   40 1
  14    6    7 1
  15    6   41 1
  16    6   42 1
  17    7   43 1
  18    7   44 1
  19    8    9 2
  20    8   29 1
  21    9   10 1
  22   10   11 1
  23   11   12 2
  24   11   13 am
  25   13   16 1
  26   13   45 1
  27   14   46 1
  28   14   47 1
  29   14   48 1
  30   15   19 2
  31   15   22 am
  32   15   16 1
  33   16   17 1
  34   16   49 1
  35   17   18 1
  36   17   20 1
  37   17   21 1
  38   18   50 1
  39   18   51 1
  40   18   52 1
  41   20   53 1
  42   20   54 1
  43   20   55 1
  44   21   56 1
  45   21   57 1
  46   21   58 1
  47   22   23 1
  48   22   26 1
  49   23   24 1
  50   23   59 1
  51   23   60 1
  52   24   25 1
  53   24   27 1
  54   24   28 1
  55   25   26 1
  56   25   61 1
  57   25   62 1
  58   26   63 1
  59   26   64 1
  60   29   30 ar
  61   29   34 ar
  62   30   31 ar
  63   30   36 1
  64   31   32 ar
  65   31   65 1
  66   32   33 ar
  67   32   66 1
  68   33   34 ar
  69   33   35 1
  70   34   67 1

#	End of record

