#	Name: ASD01150094
#	Creating user name:	WinNT
#	Creation time:	15. 06. 2019 19:03

#	Modifying user name:	WinNT
#	Modification time:	15. 06. 2019 19:03

#	Program:	/corina/corina34_cracker 3.40 0067  02.08.2006

@<TRIPOS>MOLECULE
ASD01150094
  24   24    0    0    0
SMALL
NO_CHARGES


@<TRIPOS>ATOM
   1 N1            -0.0169     1.3917     0.0097 N.pl3   
   2 C2             0.0021    -0.0041     0.0020 C.2     
   3 C3            -1.3293    -0.4032     0.0126 C.2     
   4 N4            -2.0811     0.7022     0.0257 N.2     
   5 C5            -1.3126     1.7682     0.0300 C.2     
   6 C6             1.1380    -0.8375    -0.0140 C.2     
   7 O7             2.3742    -0.2939    -0.0236 O.3     
   8 C8             1.1487     2.2793     0.0033 C.3     
   9 O9            -1.7527     3.0461     0.0427 O.3     
  10 C10           -3.1678     3.2449     0.0517 C.3     
  11 O11            1.0050    -2.0480    -0.0191 O.2     
  12 C12            3.4805    -1.1983    -0.0397 C.3     
  13 N13           -1.7931    -1.7097     0.0093 N.pl3   
  14 H14            1.4279     2.5049    -1.0258 H       
  15 H15            0.9035     3.2047     0.5245 H       
  16 H16            1.9818     1.7886     0.5066 H       
  17 H17           -3.6037     2.7939    -0.8398 H       
  18 H18           -3.5945     2.7793     0.9401 H       
  19 H19           -3.3846     4.3130     0.0616 H       
  20 H20            3.4456    -1.8308     0.8473 H       
  21 H21            3.4275    -1.8213    -0.9326 H       
  22 H22            4.4122    -0.6326    -0.0461 H       
  23 H23           -1.1637    -2.4478    -0.0012 H       
  24 H24           -2.7469    -1.8858     0.0175 H       
@<TRIPOS>BOND
   1    1    2 1
   2    1    8 1
   3    1    5 1
   4    2    3 2
   5    2    6 1
   6    3    4 1
   7    3   13 1
   8    4    5 2
   9    5    9 1
  10    6    7 1
  11    6   11 2
  12    7   12 1
  13    8   14 1
  14    8   15 1
  15    8   16 1
  16    9   10 1
  17   10   17 1
  18   10   18 1
  19   10   19 1
  20   12   20 1
  21   12   21 1
  22   12   22 1
  23   13   23 1
  24   13   24 1

#	End of record

