#	Name: ASD00190057
#	Creating user name:	WinNT
#	Creation time:	15. 06. 2019 18:33

#	Modifying user name:	WinNT
#	Modification time:	15. 06. 2019 18:33

#	Program:	/corina/corina34_cracker 3.40 0067  02.08.2006

@<TRIPOS>MOLECULE
ASD00190057
  48   52    0    0    0
SMALL
NO_CHARGES


@<TRIPOS>ATOM
   1 C1            -0.0154     1.3889     0.0327 C.ar    
   2 C2             0.0026    -0.0011     0.0112 C.ar    
   3 C3             1.1801    -0.6877    -0.0109 C.ar    
   4 C4             2.3964     0.0123    -0.0121 C.ar    
   5 C5             2.3718     1.4268     0.0098 C.ar    
   6 C6             1.1497     2.1010     0.0322 C.ar    
   7 N7             3.5674    -0.6415    -0.0332 N.ar    
   8 C8             4.7273    -0.0214    -0.0347 C.ar    
   9 C9             4.8189     1.3796    -0.0136 C.ar    
  10 C10            3.6478     2.1440     0.0082 C.ar    
  11 N11            5.8586     2.2833    -0.0097 N.pl3   
  12 C12            5.3154     3.5208     0.0143 C.2     
  13 N13            4.0133     3.4342     0.0246 N.2     
  14 N14            5.8930    -0.7726    -0.0572 N.pl3   
  15 C15            5.8289    -2.1663     0.0415 C.ar    
  16 C16            6.7402    -2.9547    -0.6484 C.ar    
  17 C17            6.6746    -4.3328    -0.5491 C.ar    
  18 C18            5.6992    -4.9256     0.2384 C.ar    
  19 C19            4.7906    -4.1399     0.9263 C.ar    
  20 C20            4.8570    -2.7633     0.8344 C.ar    
  21 C21            6.0973     4.8090     0.0269 C.3     
  22 C22            6.4826     5.1577     1.4660 C.3     
  23 C23            7.2763     6.4656     1.4788 C.3     
  24 C24            8.5434     6.3015     0.6371 C.3     
  25 C25            8.1581     5.9528    -0.8020 C.3     
  26 C26            7.3643     4.6449    -0.8148 C.3     
  27 F27            7.5605    -5.1012    -1.2197 F       
  28 F28            5.6354    -6.2717     0.3340 F       
  29 H29           -0.9608     1.9110     0.0454 H       
  30 H30           -0.9304    -0.5452     0.0124 H       
  31 H31            1.1770    -1.7676    -0.0271 H       
  32 H32            1.1258     3.1806     0.0489 H       
  33 H33            6.8050     2.0710    -0.0217 H       
  34 H34            6.7528    -0.3314    -0.1414 H       
  35 H35            7.4991    -2.4925    -1.2621 H       
  36 H36            4.0317    -4.6036     1.5391 H       
  37 H37            4.1475    -2.1513     1.3715 H       
  38 H38            5.4856     5.6093    -0.3895 H       
  39 H39            5.5799     5.2746     2.0656 H       
  40 H40            7.0942     4.3573     1.8824 H       
  41 H41            6.6647     7.2659     1.0624 H       
  42 H42            7.5508     6.7140     2.5040 H       
  43 H43            9.1089     7.2332     0.6462 H       
  44 H44            9.1551     5.5011     1.0535 H       
  45 H45            7.5464     6.7531    -1.2184 H       
  46 H46            9.0608     5.8358    -1.4016 H       
  47 H47            7.9760     3.8445    -0.3984 H       
  48 H48            7.0898     4.3965    -1.8400 H       
@<TRIPOS>BOND
   1    1    2 ar
   2    1    6 ar
   3    1   29 1
   4    2    3 ar
   5    2   30 1
   6    3    4 ar
   7    3   31 1
   8    4    5 ar
   9    4    7 ar
  10    5    6 ar
  11    5   10 ar
  12    6   32 1
  13    7    8 ar
  14    8    9 ar
  15    8   14 1
  16    9   10 ar
  17    9   11 1
  18   10   13 1
  19   11   12 1
  20   11   33 1
  21   12   13 2
  22   12   21 1
  23   14   15 1
  24   14   34 1
  25   15   16 ar
  26   15   20 ar
  27   16   17 ar
  28   16   35 1
  29   17   18 ar
  30   17   27 1
  31   18   19 ar
  32   18   28 1
  33   19   20 ar
  34   19   36 1
  35   20   37 1
  36   21   22 1
  37   21   26 1
  38   21   38 1
  39   22   23 1
  40   22   39 1
  41   22   40 1
  42   23   24 1
  43   23   41 1
  44   23   42 1
  45   24   25 1
  46   24   43 1
  47   24   44 1
  48   25   26 1
  49   25   45 1
  50   25   46 1
  51   26   47 1
  52   26   48 1

#	End of record

