#	Name: ASD03910143
#	Creating user name:	WinNT
#	Creation time:	15. 06. 2019 20:47

#	Modifying user name:	WinNT
#	Modification time:	15. 06. 2019 20:47

#	Program:	/corina/corina34_cracker 3.40 0067  02.08.2006

@<TRIPOS>MOLECULE
ASD03910143
  29   30    0    0    0
SMALL
NO_CHARGES


@<TRIPOS>ATOM
   1 N1            -0.0165     1.3656     0.0096 N.pl3   
   2 C2             0.0021    -0.0041     0.0020 C.2     
   3 C3            -1.2814    -0.4164     0.0120 C.2     
   4 N4            -2.0719     0.6636     0.0254 N.2     
   5 C5            -1.3264     1.7466     0.0301 C.2     
   6 C6            -1.8229     3.1392     0.0443 C.ar    
   7 C7            -3.1956     3.3926     0.0536 C.ar    
   8 C8            -3.6551     4.6921     0.0673 C.ar    
   9 C9            -0.9201     4.2036     0.0543 C.ar    
  10 C10           -1.3873     5.5014     0.0733 C.ar    
  11 Cl11          -0.2660     6.8267     0.0779 Cl      
  12 C12           -2.7547     5.7491     0.0715 C.ar    
  13 O13           -3.2117     7.0285     0.0898 O.3     
  14 C14           -4.6290     7.2113     0.0867 C.3     
  15 C15           -4.9504     8.7070     0.1091 C.3     
  16 C16           -6.4450     8.8997     0.1058 C.2     
  17 O17           -6.9620    10.1383     0.1232 O.3     
  18 O18           -7.1779     7.9393     0.0875 O.2     
  19 H19            0.7553     1.9531     0.0053 H       
  20 H20            0.8790    -0.6344    -0.0100 H       
  21 H21           -1.6150    -1.4436     0.0094 H       
  22 H22           -3.8969     2.5713     0.0497 H       
  23 H23           -4.7171     4.8884     0.0746 H       
  24 H24            0.1427     4.0115     0.0475 H       
  25 H25           -5.0512     6.7623    -0.8123 H       
  26 H26           -5.0588     6.7341     0.9675 H       
  27 H27           -4.5281     9.1560     1.0080 H       
  28 H28           -4.5206     9.1841    -0.7717 H       
  29 H29           -7.9262    10.2116     0.1203 H       
@<TRIPOS>BOND
   1    1    2 1
   2    1   19 1
   3    1    5 1
   4    2   20 1
   5    2    3 2
   6    3   21 1
   7    3    4 1
   8    4    5 2
   9    5    6 1
  10    6    7 ar
  11    6    9 ar
  12    7   22 1
  13    7    8 ar
  14    8   23 1
  15    8   12 ar
  16    9   24 1
  17    9   10 ar
  18   10   12 ar
  19   10   11 1
  20   12   13 1
  21   13   14 1
  22   14   15 1
  23   14   25 1
  24   14   26 1
  25   15   16 1
  26   15   27 1
  27   15   28 1
  28   16   17 1
  29   16   18 2
  30   17   29 1

#	End of record

