#	Name: ASD07301089
#	Creating user name:	WinNT
#	Creation time:	15. 06. 2019 21:10

#	Modifying user name:	WinNT
#	Modification time:	15. 06. 2019 21:10

#	Program:	/corina/corina34_cracker 3.40 0067  02.08.2006

@<TRIPOS>MOLECULE
ASD07301089
  31   31    0    0    0
SMALL
NO_CHARGES


@<TRIPOS>ATOM
   1 C1            -0.0342     1.4631    -0.1361 C.2     
   2 C2            -0.0011    -0.0025    -0.0193 C.2     
   3 C3             1.2786    -0.7092    -0.0450 C.2     
   4 C4             1.3126    -2.2111     0.0746 C.3     
   5 O5             1.0027     2.0974    -0.1231 O.2     
   6 O6            -1.2141     2.1026    -0.2632 O.3     
   7 N7            -1.1278    -0.6807     0.1089 N.2     
   8 N8            -2.2368    -0.0555     0.3170 N.pl3   
   9 C9            -3.4606    -2.1311     0.1118 C.ar    
  10 C10           -3.4424    -0.7577     0.3260 C.ar    
  11 C11           -4.6466    -0.0928     0.5503 C.ar    
  12 C12           -5.8169    -0.8337     0.5501 C.ar    
  13 C13           -5.7534    -2.1970     0.3293 C.ar    
  14 N14           -4.5975    -2.7972     0.1205 N.ar    
  15 O15            2.3136    -0.0862    -0.1628 O.2     
  16 O16            2.6674    -2.6625     0.0233 O.3     
  17 C17            2.8121    -4.0802     0.1290 C.3     
  18 C18           -1.1709     3.5498    -0.3735 C.3     
  19 H19            0.8656    -2.5102     1.0227 H       
  20 H20            0.7506    -2.6539    -0.7477 H       
  21 H21           -2.2325     0.9028     0.4673 H       
  22 H22           -2.5344    -2.6567    -0.0676 H       
  23 H23           -4.6667     0.9735     0.7203 H       
  24 H24           -6.7683    -0.3519     0.7208 H       
  25 H25           -6.6632    -2.7790     0.3282 H       
  26 H26            2.3962    -4.4181     1.0782 H       
  27 H27            2.2813    -4.5618    -0.6923 H       
  28 H28            3.8691    -4.3421     0.0816 H       
  29 H29           -0.5898     3.8300    -1.2521 H       
  30 H30           -2.1852     3.9372    -0.4701 H       
  31 H31           -0.7054     3.9685     0.5187 H       
@<TRIPOS>BOND
   1    1    2 1
   2    1    5 2
   3    1    6 1
   4    2    3 1
   5    2    7 2
   6    3    4 1
   7    3   15 2
   8    4   16 1
   9    4   19 1
  10    4   20 1
  11    6   18 1
  12    7    8 1
  13    8   10 1
  14    8   21 1
  15    9   10 ar
  16    9   14 ar
  17    9   22 1
  18   10   11 ar
  19   11   12 ar
  20   11   23 1
  21   12   13 ar
  22   12   24 1
  23   13   14 ar
  24   13   25 1
  25   16   17 1
  26   17   26 1
  27   17   27 1
  28   17   28 1
  29   18   29 1
  30   18   30 1
  31   18   31 1

#	End of record

