#	Name: ASD08150571
#	Creating user name:	WinNT
#	Creation time:	15. 06. 2019 21:16

#	Modifying user name:	WinNT
#	Modification time:	15. 06. 2019 21:16

#	Program:	/corina/corina34_cracker 3.40 0067  02.08.2006

@<TRIPOS>MOLECULE
ASD08150571
  43   47    0    0    0
SMALL
NO_CHARGES


@<TRIPOS>ATOM
   1 N1             0.4840     2.1363     1.7660 N.am    
   2 C2             0.7584     1.1989     2.6939 C.2     
   3 C3             1.9719     0.4824     2.6619 C.2     
   4 C4             2.8854     0.7292     1.6887 C.2     
   5 C5             2.5999     1.7143     0.7105 C.ar    
   6 C6             3.5128     2.0080    -0.3207 C.ar    
   7 N7             3.2466     2.9165    -1.2222 N.ar    
   8 C8             2.1011     3.6156    -1.2194 C.ar    
   9 C9             1.1252     3.3861    -0.2192 C.ar    
  10 C10            1.3828     2.4101     0.7712 C.ar    
  11 C11           -0.2755     5.0654    -1.2112 C.ar    
  12 C12            0.6900     5.2883    -2.1956 C.ar    
  13 C13            1.8546     4.5832    -2.2061 C.ar    
  14 O14           -0.0537     0.9676     3.5734 O.2     
  15 C15           -0.7311     2.8307     1.8165 C.ar    
  16 C16           -1.8515     2.3191     1.1749 C.ar    
  17 C17           -3.0489     3.0052     1.2263 C.ar    
  18 C18           -3.1327     4.2028     1.9166 C.ar    
  19 C19           -2.0165     4.7150     2.5567 C.ar    
  20 C20           -0.8188     4.0289     2.5130 C.ar    
  21 C21           -0.0652     4.1219    -0.2267 C.ar    
  22 N22           -1.4663     5.8059    -1.2232 N.pl3   
  23 C23           -2.7020     5.3534    -0.8866 C.2     
  24 F24           -4.3049     4.8727     1.9653 F       
  25 N25           -3.5545     6.3323    -1.0230 N.2     
  26 C26           -2.9079     7.4291    -1.4448 C.2     
  27 C27           -1.6022     7.1250    -1.5713 C.2     
  28 C28           -3.5336     8.7715    -1.7231 C.3     
  29 H29            2.1756    -0.2651     3.4143 H       
  30 H30            3.8166     0.1829     1.6604 H       
  31 H31            4.4500     1.4733    -0.3674 H       
  32 H32            0.5099     6.0302    -2.9594 H       
  33 H33            2.5902     4.7690    -2.9748 H       
  34 H34           -1.7864     1.3855     0.6358 H       
  35 H35           -3.9204     2.6077     0.7275 H       
  36 H36           -2.0838     5.6494     3.0939 H       
  37 H37            0.0515     4.4286     3.0123 H       
  38 H38           -0.8142     3.9521     0.5326 H       
  39 H39           -2.9394     4.3513    -0.5612 H       
  40 H40           -0.8144     7.7906    -1.8917 H       
  41 H41           -3.5203     9.3739    -0.8148 H       
  42 H42           -2.9694     9.2803    -2.5048 H       
  43 H43           -4.5636     8.6314    -2.0511 H       
@<TRIPOS>BOND
   1    1    2 am
   2    1   10 1
   3    1   15 1
   4    2    3 1
   5    2   14 2
   6    3    4 2
   7    3   29 1
   8    4    5 1
   9    4   30 1
  10    5    6 ar
  11    5   10 ar
  12    6    7 ar
  13    6   31 1
  14    7    8 ar
  15    8    9 ar
  16    8   13 ar
  17    9   10 ar
  18    9   21 ar
  19   11   12 ar
  20   11   22 1
  21   11   21 ar
  22   12   13 ar
  23   12   32 1
  24   13   33 1
  25   15   16 ar
  26   15   20 ar
  27   16   17 ar
  28   16   34 1
  29   17   18 ar
  30   17   35 1
  31   18   19 ar
  32   18   24 1
  33   19   20 ar
  34   19   36 1
  35   20   37 1
  36   21   38 1
  37   22   23 1
  38   22   27 1
  39   23   25 2
  40   23   39 1
  41   25   26 1
  42   26   27 2
  43   26   28 1
  44   27   40 1
  45   28   41 1
  46   28   42 1
  47   28   43 1

#	End of record

