#	Name: ASD01142025
#	Creating user name:	WinNT
#	Creation time:	15. 06. 2019 19:01

#	Modifying user name:	WinNT
#	Modification time:	15. 06. 2019 19:01

#	Program:	/corina/corina34_cracker 3.40 0067  02.08.2006

@<TRIPOS>MOLECULE
ASD01142025
  29   30    0    0    0
SMALL
NO_CHARGES


@<TRIPOS>ATOM
   1 C1            -0.0161     1.3337     0.0094 C.2     
   2 N2             0.0021    -0.0041     0.0020 N.am    
   3 C3            -1.1333    -0.7343     0.0089 C.2     
   4 C4            -2.4506     0.0179     0.0256 C.3     
   5 C5            -2.3580     1.5320     0.0328 C.2     
   6 N6            -1.1251     2.0818     0.0294 N.am    
   7 O7            -3.3543     2.2227     0.0460 O.2     
   8 O8             1.0527     1.9113     0.0023 O.2     
   9 O9            -1.1014    -1.9462     0.0017 O.2     
  10 C10           -3.2553    -0.4040    -1.2055 C.3     
  11 C11           -2.4682    -0.0601    -2.4716 C.3     
  12 C12           -3.2199    -0.4108     1.2485 C.ar    
  13 C13           -2.6835    -0.2127     2.5070 C.ar    
  14 C14           -3.3892    -0.6060     3.6288 C.ar    
  15 C15           -4.6314    -1.1968     3.4920 C.ar    
  16 C16           -5.1682    -1.3940     2.2334 C.ar    
  17 C17           -4.4644    -0.9968     1.1119 C.ar    
  18 H18            0.8566    -0.4630    -0.0089 H       
  19 H19           -1.0408     3.0481     0.0339 H       
  20 H20           -3.4361    -1.4784    -1.1707 H       
  21 H21           -4.2084     0.1247    -1.2152 H       
  22 H22           -3.0415    -0.3606    -3.3487 H       
  23 H23           -2.2874     1.0143    -2.5065 H       
  24 H24           -1.5151    -0.5888    -2.4619 H       
  25 H25           -1.7130     0.2488     2.6139 H       
  26 H26           -2.9698    -0.4519     4.6120 H       
  27 H27           -5.1824    -1.5046     4.3683 H       
  28 H28           -6.1386    -1.8559     2.1265 H       
  29 H29           -4.8838    -1.1509     0.1286 H       
@<TRIPOS>BOND
   1    1    2 am
   2    1    8 2
   3    1    6 am
   4    2    3 am
   5    2   18 1
   6    3    4 1
   7    3    9 2
   8    4    5 1
   9    4   10 1
  10    4   12 1
  11    5    6 am
  12    5    7 2
  13    6   19 1
  14   10   11 1
  15   10   20 1
  16   10   21 1
  17   11   22 1
  18   11   23 1
  19   11   24 1
  20   12   13 ar
  21   12   17 ar
  22   13   14 ar
  23   13   25 1
  24   14   15 ar
  25   14   26 1
  26   15   16 ar
  27   15   27 1
  28   16   17 ar
  29   16   28 1
  30   17   29 1

#	End of record

