#	Name: ASD05300019
#	Creating user name:	WinNT
#	Creation time:	15. 06. 2019 20:58

#	Modifying user name:	WinNT
#	Modification time:	15. 06. 2019 20:58

#	Program:	/corina/corina34_cracker 3.40 0067  02.08.2006

@<TRIPOS>MOLECULE
ASD05300019
  39   42    0    0    0
SMALL
NO_CHARGES


@<TRIPOS>ATOM
   1 O1             0.0030    -0.0034    -0.0045 O.2     
   2 C2            -0.0141     1.2093     0.0007 C.2     
   3 N3             1.1433     1.8996    -0.0162 N.am    
   4 C4             2.3241     1.2426    -0.0390 C.2     
   5 C5             2.6290     0.4181    -1.1238 C.2     
   6 C6             3.8587    -0.2349    -1.1837 C.2     
   7 C7             4.7905    -0.0555    -0.1619 C.2     
   8 C8             4.4831     0.7600     0.9249 C.2     
   9 C9             3.2406     1.3961     0.9989 C.2     
  10 C10            2.9032     2.1756     2.1929 C.2     
  11 C11            2.2305     3.2803     2.2149 C.2     
  12 C12            1.6816     3.9699     1.0421 C.2     
  13 C13            1.1265     3.2502    -0.0162 C.2     
  14 C14            0.5439     3.9292    -1.0900 C.2     
  15 C15            0.5565     5.3220    -1.1276 C.2     
  16 C16            1.1522     6.0404    -0.0914 C.2     
  17 C17            1.7153     5.3661     0.9900 C.2     
  18 N18           -1.1906     1.8665     0.0178 N.am    
  19 C19           -2.3877     1.1570    -0.0857 C.ar    
  20 C20           -3.5294     1.5778     0.5945 C.ar    
  21 C21           -4.6935     0.8489     0.4655 C.ar    
  22 N22           -4.7340    -0.2331    -0.2889 N.ar    
  23 C23           -3.6749    -0.6634    -0.9483 C.ar    
  24 C24           -2.4745     0.0124    -0.8766 C.ar    
  25 H25            1.9098     0.2858    -1.9185 H       
  26 H26            4.0893    -0.8788    -2.0196 H       
  27 H27            5.7499    -0.5488    -0.2128 H       
  28 H28            5.2074     0.9010     1.7135 H       
  29 H29            3.2476     1.7924     3.1421 H       
  30 H30            2.0578     3.7338     3.1797 H       
  31 H31            0.0830     3.3729    -1.8928 H       
  32 H32            0.1057     5.8445    -1.9584 H       
  33 H33            1.1786     7.1195    -0.1270 H       
  34 H34            2.1764     5.9238     1.7917 H       
  35 H35           -1.2052     2.8327     0.1021 H       
  36 H36           -3.5029     2.4620     1.2142 H       
  37 H37           -5.5828     1.1675     0.9889 H       
  38 H38           -3.7501    -1.5537    -1.5550 H       
  39 H39           -1.6117    -0.3449    -1.4190 H       
@<TRIPOS>BOND
   1    1    2 2
   2    2    3 am
   3    2   18 am
   4    3    4 1
   5    3   13 1
   6    4    5 2
   7    4    9 1
   8    5    6 1
   9    5   25 1
  10    6    7 2
  11    6   26 1
  12    7    8 1
  13    7   27 1
  14    8    9 2
  15    8   28 1
  16    9   10 1
  17   10   11 2
  18   10   29 1
  19   11   12 1
  20   11   30 1
  21   12   13 2
  22   12   17 1
  23   13   14 1
  24   14   15 2
  25   14   31 1
  26   15   16 1
  27   15   32 1
  28   16   17 2
  29   16   33 1
  30   17   34 1
  31   18   19 1
  32   18   35 1
  33   19   20 ar
  34   19   24 ar
  35   20   21 ar
  36   20   36 1
  37   21   22 ar
  38   21   37 1
  39   22   23 ar
  40   23   24 ar
  41   23   38 1
  42   24   39 1

#	End of record

