#	Name: ASD09080010
#	Creating user name:	WinNT
#	Creation time:	15. 06. 2019 21:20

#	Modifying user name:	WinNT
#	Modification time:	15. 06. 2019 21:20

#	Program:	/corina/corina34_cracker 3.40 0067  02.08.2006

@<TRIPOS>MOLECULE
ASD09080010
  81   84    0    0    0
SMALL
NO_CHARGES


@<TRIPOS>ATOM
   1 C1             0.5369     4.4340     2.0780 C.ar    
   2 C2             1.1526     3.1969     2.1576 C.ar    
   3 C3             0.4075     2.0381     2.0245 C.ar    
   4 C4            -0.9555     2.1112     1.8120 C.ar    
   5 C5            -1.5801     3.3540     1.7316 C.ar    
   6 C6            -0.8265     4.5175     1.8714 C.ar    
   7 Cl7            1.4783     5.8830     2.2453 Cl      
   8 Cl8            1.1872     0.4903     2.1243 Cl      
   9 C9            -3.0438     3.4381     1.5029 C.ar    
  10 C10           -3.6863     4.6742     1.5326 C.ar    
  11 C11           -5.0479     4.7467     1.3188 C.ar    
  12 C12           -5.7746     3.5952     1.0754 C.ar    
  13 C13           -5.1420     2.3655     1.0452 C.ar    
  14 C14           -3.7799     2.2820     1.2520 C.ar    
  15 C15           -7.2610     3.6807     0.8426 C.3     
  16 C16           -7.5298     3.9757    -0.6344 C.3     
  17 C17           -9.0370     3.9414    -0.8953 C.3     
  18 C18           -9.2914     3.7654    -2.3937 C.3     
  19 O19           -9.6250     5.1665    -0.4530 O.3     
  20 O20           -8.8299     4.9222    -3.0943 O.3     
  21 N21           -7.0060     5.3019    -0.9707 N.am    
  22 C22           -5.1585    11.6682    -0.4617 C.ar    
  23 C23           -5.8937    12.3733    -1.3962 C.ar    
  24 C24           -7.1225    11.8959    -1.8121 C.ar    
  25 C25           -7.6162    10.7134    -1.2935 C.ar    
  26 C26           -6.8811    10.0084    -0.3589 C.ar    
  27 C27           -5.6523    10.4857     0.0570 C.ar    
  28 C28           -7.4193     8.7193     0.2065 C.3     
  29 O29           -6.9806     7.6082    -0.6189 O.3     
  30 C30           -7.3785     6.3767    -0.2479 C.2     
  31 O31           -8.0734     6.2342     0.7387 O.2     
  32 N32           -6.1180     5.4529    -2.0438 N.am    
  33 C33          -11.7206     8.1525    -4.4312 C.ar    
  34 C34          -11.8125     9.4135    -3.8723 C.ar    
  35 C35          -10.6685    10.0738    -3.4647 C.ar    
  36 C36           -9.4327     9.4732    -3.6159 C.ar    
  37 C37           -9.3408     8.2123    -4.1749 C.ar    
  38 C38          -10.4847     7.5519    -4.5825 C.ar    
  39 C39           -7.9935     7.5575    -4.3398 C.3     
  40 O40           -7.6593     6.8267    -3.1305 O.3     
  41 C41           -6.4452     6.2465    -3.0828 C.2     
  42 O42           -5.6446     6.4384    -3.9764 O.2     
  43 C43          -10.7684     3.5880    -2.6350 C.2     
  44 O44          -11.3827     4.4200    -3.2598 O.2     
  45 O45          -11.4014     2.5057    -2.1559 O.3     
  46 C46          -13.3672     1.1114    -1.8067 C.3     
  47 C47          -12.8241     2.4005    -2.4265 C.3     
  48 H48            2.2180     3.1357     2.3236 H       
  49 H49           -1.5360     1.2064     1.7080 H       
  50 H50           -1.3062     5.4832     1.8102 H       
  51 H51           -3.1199     5.5738     1.7230 H       
  52 H52           -5.5469     5.7042     1.3420 H       
  53 H53           -5.7143     1.4695     0.8554 H       
  54 H54           -3.2870     1.3213     1.2283 H       
  55 H55           -7.7264     2.7333     1.1145 H       
  56 H56           -7.6792     4.4798     1.4547 H       
  57 H57           -7.0372     3.2235    -1.2507 H       
  58 H58           -9.4811     3.1080    -0.3510 H       
  59 H59           -8.7564     2.8860    -2.7522 H       
  60 H60           -9.4098     5.9288    -1.0077 H       
  61 H61           -9.2233     5.7507    -2.7877 H       
  62 H62           -4.1965    12.0389    -0.1401 H       
  63 H63           -5.5081    13.2973    -1.8011 H       
  64 H64           -7.6972    12.4471    -2.5417 H       
  65 H65           -8.5766    10.3408    -1.6179 H       
  66 H66           -5.0778     9.9347     0.7868 H       
  67 H67           -7.0486     8.5856     1.2228 H       
  68 H68           -8.5087     8.7548     0.2188 H       
  69 H69           -5.2677     4.9862    -2.0389 H       
  70 H70          -12.6147     7.6348    -4.7456 H       
  71 H71          -12.7780     9.8829    -3.7544 H       
  72 H72          -10.7402    11.0593    -3.0286 H       
  73 H73           -8.5389     9.9894    -3.2981 H       
  74 H74          -10.4130     6.5666    -5.0189 H       
  75 H75           -8.0253     6.8684    -5.1837 H       
  76 H76           -7.2382     8.3217    -4.5230 H       
  77 H77          -12.8507     0.2546    -2.2394 H       
  78 H78          -13.2025     1.1288    -0.7293 H       
  79 H79          -14.4352     1.0324    -2.0098 H       
  80 H80          -13.3405     3.2573    -1.9938 H       
  81 H81          -12.9887     2.3831    -3.5038 H       
@<TRIPOS>BOND
   1    1    2 ar
   2    1    7 1
   3    1    6 ar
   4    2    3 ar
   5    2   48 1
   6    3    4 ar
   7    3    8 1
   8    4    5 ar
   9    4   49 1
  10    5    6 ar
  11    5    9 1
  12    6   50 1
  13    9   10 ar
  14    9   14 ar
  15   10   11 ar
  16   10   51 1
  17   11   12 ar
  18   11   52 1
  19   12   13 ar
  20   12   15 1
  21   13   14 ar
  22   13   53 1
  23   14   54 1
  24   15   16 1
  25   15   55 1
  26   15   56 1
  27   16   17 1
  28   16   21 1
  29   16   57 1
  30   17   18 1
  31   17   19 1
  32   17   58 1
  33   18   20 1
  34   18   43 1
  35   18   59 1
  36   19   60 1
  37   20   61 1
  38   21   32 1
  39   21   30 am
  40   22   23 ar
  41   22   27 ar
  42   22   62 1
  43   23   24 ar
  44   23   63 1
  45   24   25 ar
  46   24   64 1
  47   25   26 ar
  48   25   65 1
  49   26   27 ar
  50   26   28 1
  51   27   66 1
  52   28   29 1
  53   28   67 1
  54   28   68 1
  55   29   30 1
  56   30   31 2
  57   32   41 am
  58   32   69 1
  59   33   34 ar
  60   33   38 ar
  61   33   70 1
  62   34   35 ar
  63   34   71 1
  64   35   36 ar
  65   35   72 1
  66   36   37 ar
  67   36   73 1
  68   37   38 ar
  69   37   39 1
  70   38   74 1
  71   39   40 1
  72   39   75 1
  73   39   76 1
  74   40   41 1
  75   41   42 2
  76   43   44 2
  77   43   45 1
  78   45   47 1
  79   46   47 1
  80   46   77 1
  81   46   78 1
  82   46   79 1
  83   47   80 1
  84   47   81 1

#	End of record

