#	Name: ASD01901391
#	Creating user name:	WinNT
#	Creation time:	15. 06. 2019 19:53

#	Modifying user name:	WinNT
#	Modification time:	15. 06. 2019 19:53

#	Program:	/corina/corina34_cracker 3.40 0067  02.08.2006

@<TRIPOS>MOLECULE
ASD01901391
  41   44    0    0    0
SMALL
NO_CHARGES


@<TRIPOS>ATOM
   1 N1            -0.0159     1.3225     0.0093 N.ar    
   2 C2             1.0957     2.0292     0.0025 C.ar    
   3 C3             2.3349     1.4046    -0.0127 C.ar    
   4 C4             2.3959     0.0138    -0.0207 C.ar    
   5 C5             1.2101    -0.6983    -0.0132 C.ar    
   6 C6             0.0021    -0.0041     0.0020 C.ar    
   7 C7            -1.2766    -0.7557     0.0102 C.2     
   8 N8            -2.4096    -2.8273     0.0162 N.2     
   9 C9            -1.2772    -2.1680     0.0085 C.2     
  10 C10           -2.4715    -0.0912     0.0252 C.2     
  11 N11           -3.6279    -0.8125     0.0328 N.pl3   
  12 C12           -3.5865    -2.1832     0.0255 C.2     
  13 C13           -4.9474    -0.4479     0.0475 C.2     
  14 C14           -5.6733    -1.5859     0.0489 C.2     
  15 N15           -4.8353    -2.6268     0.0347 N.2     
  16 C16           -7.1779    -1.6689     0.0634 C.3     
  17 O17           -7.7276    -0.3499     0.0756 O.3     
  18 C18           -9.0830    -0.2462     0.0896 C.ar    
  19 C19           -9.8667    -1.3907     0.0973 C.ar    
  20 C20           -9.6835     1.0041     0.1020 C.ar    
  21 C21          -11.0610     1.1080     0.1167 C.ar    
  22 C22          -11.8421    -0.0352     0.1195 C.ar    
  23 C23          -11.2440    -1.2839     0.1120 C.ar    
  24 F24          -13.1891     0.0678     0.1348 F       
  25 O25            3.4763     2.1426    -0.0201 O.3     
  26 C26            3.3299     3.5640    -0.0115 C.3     
  27 H27            1.0421     3.1078     0.0084 H       
  28 H28            3.3472    -0.4974    -0.0329 H       
  29 H29            1.2205    -1.7782    -0.0195 H       
  30 H30           -0.3410    -2.7064     0.0005 H       
  31 H31           -2.4985     0.9885     0.0312 H       
  32 H32           -5.3346     0.5603     0.0563 H       
  33 H33           -7.5213    -2.1973    -0.8260 H       
  34 H34           -7.5036    -2.2065     0.9539 H       
  35 H35           -9.4004    -2.3648     0.0914 H       
  36 H36           -9.0745     1.8960     0.1005 H       
  37 H37          -11.5288     2.0813     0.1263 H       
  38 H38          -11.8544    -2.1748     0.1180 H       
  39 H39            2.7729     3.8772    -0.8945 H       
  40 H40            2.7902     3.8683     0.8853 H       
  41 H41            4.3149     4.0308    -0.0187 H       
@<TRIPOS>BOND
   1    1    6 ar
   2    1    2 ar
   3    2    3 ar
   4    2   27 1
   5    3    4 ar
   6    3   25 1
   7    4    5 ar
   8    4   28 1
   9    5    6 ar
  10    5   29 1
  11    6    7 1
  12    7   10 2
  13    7    9 1
  14    8    9 2
  15    8   12 1
  16    9   30 1
  17   10   11 1
  18   10   31 1
  19   11   13 1
  20   11   12 1
  21   12   15 2
  22   13   14 2
  23   13   32 1
  24   14   15 1
  25   14   16 1
  26   16   17 1
  27   16   33 1
  28   16   34 1
  29   17   18 1
  30   18   20 ar
  31   18   19 ar
  32   19   23 ar
  33   19   35 1
  34   20   21 ar
  35   20   36 1
  36   21   22 ar
  37   21   37 1
  38   22   23 ar
  39   22   24 1
  40   23   38 1
  41   25   26 1
  42   26   39 1
  43   26   40 1
  44   26   41 1

#	End of record

