#	Name: ASD01001038
#	Creating user name:	WinNT
#	Creation time:	15. 06. 2019 18:55

#	Modifying user name:	WinNT
#	Modification time:	15. 06. 2019 18:55

#	Program:	/corina/corina34_cracker 3.40 0067  02.08.2006

@<TRIPOS>MOLECULE
ASD01001038
  44   46    0    0    0
SMALL
NO_CHARGES


@<TRIPOS>ATOM
   1 C1             0.2221     2.5134     0.5122 C.ar    
   2 C2            -0.1816     1.2591     0.9302 C.ar    
   3 C3             1.5482     2.7438     0.1977 C.ar    
   4 C4             0.7419     0.2344     1.0336 C.ar    
   5 C5             2.4716     1.7199     0.3005 C.ar    
   6 C6             2.0693     0.4656     0.7186 C.ar    
   7 C7             3.9170     1.9716    -0.0436 C.3     
   8 C8             4.6892     0.6814     0.0562 C.ar    
   9 C9             4.0130     2.5070    -1.4490 C.ar    
  10 S10            4.6119     3.1833     1.1138 S.3     
  11 C11            4.3649    -0.3835    -0.7634 C.ar    
  12 C12            5.7256     0.5645     0.9635 C.ar    
  13 C13            3.0498     2.1736    -2.3829 C.ar    
  14 C14            5.0610     3.3361    -1.8028 C.ar    
  15 C15            4.2112     2.4753     2.7352 C.3     
  16 C16            5.0769    -1.5651    -0.6758 C.ar    
  17 C17            6.4339    -0.6190     1.0551 C.ar    
  18 C18            3.1348     2.6693    -3.6705 C.ar    
  19 C19            5.1490     3.8271    -3.0919 C.ar    
  20 C20            4.8548     3.3224     3.8347 C.3     
  21 C21            6.1135    -1.6818     0.2312 C.ar    
  22 C22            4.1826     3.4987    -4.0241 C.ar    
  23 N23            4.5303     2.7490     5.1477 N.3     
  24 Cl24           0.2358    -1.3409     1.5589 Cl      
  25 H25            5.9364     3.3321     3.6998 H       
  26 H26           -0.4996     3.3123     0.4272 H       
  27 H27           -1.2177     1.0793     1.1762 H       
  28 H28            1.8631     3.7239    -0.1288 H       
  29 H29            2.7908    -0.3339     0.7995 H       
  30 H30            3.5549    -0.2923    -1.4720 H       
  31 H31            5.9822     1.3981     1.6005 H       
  32 H32            2.2312     1.5256    -2.1066 H       
  33 H33            5.8109     3.6004    -1.0718 H       
  34 H34            3.1296     2.4656     2.8701 H       
  35 H35            4.5935     1.4560     2.7911 H       
  36 H36            4.8230    -2.3973    -1.3156 H       
  37 H37            7.2438    -0.7102     1.7637 H       
  38 H38            2.3827     2.4082    -4.4003 H       
  39 H39            5.9677     4.4751    -3.3682 H       
  40 H40            4.4725     4.3416     3.7788 H       
  41 H41            6.6696    -2.6051     0.2999 H       
  42 H42            4.2513     3.8823    -5.0314 H       
  43 H43            4.8172     1.7832     5.2014 H       
  44 H44            4.9443     3.2911     5.8913 H       
@<TRIPOS>BOND
   1    1    2 ar
   2    1    3 ar
   3    1   26 1
   4    2    4 ar
   5    2   27 1
   6    3    5 ar
   7    3   28 1
   8    4    6 ar
   9    4   24 1
  10    5    6 ar
  11    5    7 1
  12    6   29 1
  13    7   10 1
  14    7    8 1
  15    7    9 1
  16    8   12 ar
  17    8   11 ar
  18    9   14 ar
  19    9   13 ar
  20   10   15 1
  21   11   16 ar
  22   11   30 1
  23   12   17 ar
  24   12   31 1
  25   13   18 ar
  26   13   32 1
  27   14   19 ar
  28   14   33 1
  29   15   20 1
  30   15   34 1
  31   15   35 1
  32   16   21 ar
  33   16   36 1
  34   17   21 ar
  35   17   37 1
  36   18   22 ar
  37   18   38 1
  38   19   22 ar
  39   19   39 1
  40   20   23 1
  41   20   25 1
  42   20   40 1
  43   21   41 1
  44   22   42 1
  45   23   43 1
  46   23   44 1

#	End of record

