#	Name: ASD01208601
#	Creating user name:	WinNT
#	Creation time:	15. 06. 2019 19:10

#	Modifying user name:	WinNT
#	Modification time:	15. 06. 2019 19:10

#	Program:	/corina/corina34_cracker 3.40 0067  02.08.2006

@<TRIPOS>MOLECULE
ASD01208601
  79   81    0    0    0
SMALL
NO_CHARGES


@<TRIPOS>ATOM
   1 O1             0.3747    -0.4917     1.1763 O.3     
   2 C2             0.0985    -1.7758     0.8618 C.2     
   3 N3             1.1075    -2.4168     0.3479 N.2     
   4 C4             2.2623    -1.4994     0.2915 C.3     
   5 C5             1.8093    -0.3516     1.2262 C.3     
   6 N6            -2.3209    -1.7708     1.6176 N.pl3   
   7 C7            -1.2181    -2.3916     1.0804 C.2     
   8 C8            -1.5628    -3.6922     0.7827 C.2     
   9 C9            -2.8994    -3.8649     1.1456 C.2     
  10 C10           -3.3495    -2.6693     1.6584 C.2     
  11 C11           -4.7119    -2.4033     2.1665 C.ar    
  12 C12           -5.0396    -1.1407     2.6625 C.ar    
  13 C13           -6.3172    -0.8956     3.1371 C.ar    
  14 C14           -7.2709    -1.9034     3.1204 C.ar    
  15 C15           -6.9494    -3.1600     2.6282 C.ar    
  16 C16           -5.6755    -3.4120     2.1462 C.ar    
  17 O17           -7.8872    -4.1435     2.6140 O.3     
  18 Si18          -8.5966    -4.3629     1.1619 Si      
  19 C19           -6.5807    -5.8787    -0.0002 C.3     
  20 C20           -7.2854    -4.5290    -0.1511 C.3     
  21 C21           -7.9347    -4.4444    -1.5339 C.3     
  22 C22           -9.9982    -6.3190    -0.2242 C.3     
  23 C23           -9.6325    -5.9107     1.2043 C.3     
  24 C24           -8.8392    -7.0373     1.8695 C.3     
  25 C25          -10.4405    -2.4784     2.0341 C.3     
  26 C26           -9.6822    -2.8995     0.7737 C.3     
  27 C27           -8.8155    -1.7363     0.2873 C.3     
  28 O28           -6.6373     0.3336     3.6204 O.3     
  29 C29           -5.9215     2.3211     4.7944 C.3     
  30 C30           -5.5782     1.2878     3.7195 C.3     
  31 C31           -5.3990     1.9925     2.3733 C.3     
  32 O32           -7.0680     3.0700     4.3862 O.3     
  33 C33           -7.4748     4.0678     5.3248 C.3     
  34 C34            3.5243    -2.1764     0.8299 C.3     
  35 C35            3.9297    -3.3173    -0.1054 C.3     
  36 H36            2.4207    -1.1352    -0.7235 H       
  37 H37            2.1215     0.6171     0.8359 H       
  38 H38            2.1820    -0.5019     2.2394 H       
  39 H39           -2.3609    -0.8503     1.9208 H       
  40 H40           -0.9171    -4.4407     0.3476 H       
  41 H41           -3.4761    -4.7722     1.0427 H       
  42 H42           -4.2977    -0.3559     2.6766 H       
  43 H43           -8.2662    -1.7091     3.4919 H       
  44 H44           -5.4272    -4.3893     1.7594 H       
  45 H45           -5.7361    -5.9264    -0.6875 H       
  46 H46           -6.2229    -5.9893     1.0234 H       
  47 H47           -7.2812    -6.6818    -0.2291 H       
  48 H48           -6.5576    -3.7249    -0.0416 H       
  49 H49           -8.3793    -3.4581    -1.6668 H       
  50 H50           -7.1780    -4.6082    -2.3012 H       
  51 H51           -8.7092    -5.2066    -1.6188 H       
  52 H52           -9.1006    -6.6443    -0.7501 H       
  53 H53          -10.7187    -7.1364    -0.1953 H       
  54 H54          -10.4357    -5.4672    -0.7448 H       
  55 H55          -10.5433    -5.7229     1.7729 H       
  56 H56           -8.6276    -6.7704     2.9049 H       
  57 H57           -9.4232    -7.9573     1.8435 H       
  58 H58           -7.9017    -7.1868     1.3339 H       
  59 H59           -9.7280    -2.2058     2.8127 H       
  60 H60          -11.0756    -1.6222     1.8070 H       
  61 H61          -11.0579    -3.3071     2.3806 H       
  62 H62          -10.3947    -3.1721    -0.0049 H       
  63 H63           -9.4555    -0.9432    -0.0994 H       
  64 H64           -8.2230    -1.3526     1.1179 H       
  65 H65           -8.1505    -2.0843    -0.5031 H       
  66 H66           -6.1362     1.8109     5.7334 H       
  67 H67           -5.0769     2.9961     4.9324 H       
  68 H68           -4.6533     0.7774     3.9883 H       
  69 H69           -5.1544     1.2564     1.6076 H       
  70 H70           -6.3238     2.5029     2.1045 H       
  71 H71           -4.5911     2.7203     2.4489 H       
  72 H72           -7.7217     3.5939     6.2748 H       
  73 H73           -6.6624     4.7791     5.4739 H       
  74 H74           -8.3505     4.5916     4.9417 H       
  75 H75            4.3325    -1.4470     0.8850 H       
  76 H76            3.3264    -2.5751     1.8249 H       
  77 H77            3.1215    -4.0466    -0.1604 H       
  78 H78            4.1276    -2.9185    -1.1004 H       
  79 H79            4.8288    -3.7995     0.2782 H       
@<TRIPOS>BOND
   1    1    2 1
   2    1    5 1
   3    2    3 2
   4    2    7 1
   5    3    4 1
   6    4    5 1
   7    4   34 1
   8    4   36 1
   9    5   37 1
  10    5   38 1
  11    6    7 1
  12    6   10 1
  13    6   39 1
  14    7    8 2
  15    8    9 1
  16    8   40 1
  17    9   10 2
  18    9   41 1
  19   10   11 1
  20   11   12 ar
  21   11   16 ar
  22   12   13 ar
  23   12   42 1
  24   13   14 ar
  25   13   28 1
  26   14   15 ar
  27   14   43 1
  28   15   16 ar
  29   15   17 1
  30   16   44 1
  31   17   18 1
  32   18   20 1
  33   18   23 1
  34   18   26 1
  35   19   20 1
  36   19   45 1
  37   19   46 1
  38   19   47 1
  39   20   21 1
  40   20   48 1
  41   21   49 1
  42   21   50 1
  43   21   51 1
  44   22   23 1
  45   22   52 1
  46   22   53 1
  47   22   54 1
  48   23   24 1
  49   23   55 1
  50   24   56 1
  51   24   57 1
  52   24   58 1
  53   25   26 1
  54   25   59 1
  55   25   60 1
  56   25   61 1
  57   26   27 1
  58   26   62 1
  59   27   63 1
  60   27   64 1
  61   27   65 1
  62   28   30 1
  63   29   30 1
  64   29   32 1
  65   29   66 1
  66   29   67 1
  67   30   31 1
  68   30   68 1
  69   31   69 1
  70   31   70 1
  71   31   71 1
  72   32   33 1
  73   33   72 1
  74   33   73 1
  75   33   74 1
  76   34   35 1
  77   34   75 1
  78   34   76 1
  79   35   77 1
  80   35   78 1
  81   35   79 1

#	End of record

