#	Name: ASD05513005
#	Creating user name:	WinNT
#	Creation time:	15. 06. 2019 21:01

#	Modifying user name:	WinNT
#	Modification time:	15. 06. 2019 21:01

#	Program:	/corina/corina34_cracker 3.40 0067  02.08.2006

@<TRIPOS>MOLECULE
ASD05513005
  52   56    0    0    0
SMALL
NO_CHARGES


@<TRIPOS>ATOM
   1 C1            -0.4157     1.4369    -0.2010 C.ar    
   2 C2            -0.2249     0.0691    -0.2596 C.ar    
   3 C3            -1.3065    -0.7849    -0.1518 C.ar    
   4 C4            -2.5790    -0.2711     0.0151 C.ar    
   5 C5            -2.7697     1.0967     0.0746 C.ar    
   6 C6            -1.6875     1.9506    -0.0289 C.ar    
   7 C7             0.7634     2.3680    -0.3186 C.3     
   8 N8             0.2898     3.7538    -0.3542 N.am    
   9 C9             1.1622    -0.4911    -0.4415 C.3     
  10 C10            0.1838     4.5758     0.7654 C.ar    
  11 C11           -0.3011     5.8364     0.3809 C.ar    
  12 C12           -0.5065     5.7817    -1.0784 C.2     
  13 C13           -0.0922     4.3949    -1.4723 C.2     
  14 O14           -0.9167     6.6654    -1.8019 O.2     
  15 O15           -0.1066     3.9336    -2.5941 O.2     
  16 C16            0.4682     4.3437     2.1049 C.ar    
  17 C17            0.2745     5.3430     3.0401 C.ar    
  18 C18           -0.2038     6.5855     2.6583 C.ar    
  19 C19           -0.4929     6.8377     1.3327 C.ar    
  20 C20           -4.1569     1.6569     0.2559 C.3     
  21 C21           -3.7582    -1.2021     0.1316 C.3     
  22 N22           -3.3059    -2.5859    -0.0314 N.am    
  23 C23           -2.8578    -3.3930     1.0117 C.ar    
  24 C24           -2.5019    -4.6560     0.5115 C.ar    
  25 C25           -2.7500    -4.6189    -0.9416 C.2     
  26 C26           -3.2762    -3.2393    -1.2058 C.2     
  27 C27           -2.7238    -3.1452     2.3717 C.ar    
  28 C28           -2.2466    -4.1315     3.2144 C.ar    
  29 C29           -1.8962    -5.3764     2.7186 C.ar    
  30 C30           -2.0214    -5.6441     1.3706 C.ar    
  31 O31           -3.6073    -2.7923    -2.2838 O.2     
  32 O32           -2.5714    -5.5097    -1.7461 O.2     
  33 H33           -1.1575    -1.8536    -0.1982 H       
  34 H34           -1.8365     3.0193     0.0176 H       
  35 H35            1.4216     2.2309     0.5394 H       
  36 H36            1.3106     2.1473    -1.2351 H       
  37 H37            1.6597    -0.5510     0.5265 H       
  38 H38            1.0973    -1.4873    -0.8789 H       
  39 H39            1.7330     0.1599    -1.1036 H       
  40 H40            0.8414     3.3795     2.4168 H       
  41 H41            0.4982     5.1528     4.0794 H       
  42 H42           -0.3508     7.3577     3.3988 H       
  43 H43           -0.8659     7.8061     1.0336 H       
  44 H44           -4.3444     1.8269     1.3161 H       
  45 H45           -4.2412     2.6002    -0.2837 H       
  46 H46           -4.8884     0.9489    -0.1335 H       
  47 H47           -4.2191    -1.0836     1.1123 H       
  48 H48           -4.4869    -0.9643    -0.6434 H       
  49 H49           -2.9929    -2.1789     2.7720 H       
  50 H50           -2.1455    -3.9291     4.2705 H       
  51 H51           -1.5246    -6.1384     3.3877 H       
  52 H52           -1.7485    -6.6144     0.9827 H       
@<TRIPOS>BOND
   1    1    2 ar
   2    1    7 1
   3    1    6 ar
   4    2    3 ar
   5    2    9 1
   6    3    4 ar
   7    3   33 1
   8    4    5 ar
   9    4   21 1
  10    5    6 ar
  11    5   20 1
  12    6   34 1
  13    7    8 1
  14    7   35 1
  15    7   36 1
  16    8   10 1
  17    8   13 am
  18    9   37 1
  19    9   38 1
  20    9   39 1
  21   10   11 ar
  22   10   16 ar
  23   11   12 1
  24   11   19 ar
  25   12   13 1
  26   12   14 2
  27   13   15 2
  28   16   17 ar
  29   16   40 1
  30   17   18 ar
  31   17   41 1
  32   18   19 ar
  33   18   42 1
  34   19   43 1
  35   20   44 1
  36   20   45 1
  37   20   46 1
  38   21   22 1
  39   21   47 1
  40   21   48 1
  41   22   23 1
  42   22   26 am
  43   23   24 ar
  44   23   27 ar
  45   24   25 1
  46   24   30 ar
  47   25   26 1
  48   25   32 2
  49   26   31 2
  50   27   28 ar
  51   27   49 1
  52   28   29 ar
  53   28   50 1
  54   29   30 ar
  55   29   51 1
  56   30   52 1

#	End of record

