#	Name: ASD01911493
#	Creating user name:	WinNT
#	Creation time:	15. 06. 2019 19:57

#	Modifying user name:	WinNT
#	Modification time:	15. 06. 2019 19:57

#	Program:	/corina/corina34_cracker 3.40 0067  02.08.2006

@<TRIPOS>MOLECULE
ASD01911493
  31   32    0    0    0
SMALL
NO_CHARGES


@<TRIPOS>ATOM
   1 C1            -0.0187     1.5258     0.0104 C.3     
   2 C2             0.0021    -0.0041     0.0020 C.3     
   3 C3             0.7421    -0.5109     1.2415 C.3     
   4 C4             2.1775     0.0187     1.2307 C.3     
   5 C5             2.1567     1.5485     1.2391 C.3     
   6 C6             1.4167     2.0553    -0.0004 C.3     
   7 N7            -0.7272     2.0111    -1.1764 N.pl3   
   8 N8            -1.3761    -0.5125     0.0124 N.3     
   9 C9            -1.3307     3.2635    -1.1621 C.ar    
  10 C10           -1.2579     4.0507    -0.0172 C.ar    
  11 C11           -1.8626     5.2944    -0.0165 C.ar    
  12 C12           -2.5228     5.7112    -1.1656 C.ar    
  13 C13           -2.5557     4.8782    -2.2662 C.ar    
  14 N14           -1.9649     3.6984    -2.2398 N.ar    
  15 I15           -3.4594     7.5842    -1.2277 I       
  16 H16           -0.5289     1.8773     0.9072 H       
  17 H17            0.5123    -0.3556    -0.8948 H       
  18 H18            0.2319    -0.1594     2.1383 H       
  19 H19            0.7568    -1.6008     1.2356 H       
  20 H20            2.7046    -0.3424     2.1137 H       
  21 H21            2.6876    -0.3328     0.3339 H       
  22 H22            1.6465     1.9000     2.1359 H       
  23 H23            3.1793     1.9258     1.2314 H       
  24 H24            1.9269     1.7038    -0.8972 H       
  25 H25            1.4019     3.1452     0.0056 H       
  26 H26           -0.7753     1.4586    -1.9723 H       
  27 H27           -1.3893    -1.5214     0.0072 H       
  28 H28           -1.8899    -0.1483     0.8007 H       
  29 H29           -0.7364     3.6951     0.8592 H       
  30 H30           -1.8228     5.9273     0.8578 H       
  31 H31           -3.0681     5.1978    -3.1616 H       
@<TRIPOS>BOND
   1    1    2 1
   2    1    6 1
   3    1    7 1
   4    1   16 1
   5    2    3 1
   6    2    8 1
   7    2   17 1
   8    3    4 1
   9    3   18 1
  10    3   19 1
  11    4    5 1
  12    4   20 1
  13    4   21 1
  14    5    6 1
  15    5   22 1
  16    5   23 1
  17    6   24 1
  18    6   25 1
  19    7    9 1
  20    7   26 1
  21    8   27 1
  22    8   28 1
  23    9   10 ar
  24    9   14 ar
  25   10   11 ar
  26   10   29 1
  27   11   12 ar
  28   11   30 1
  29   12   13 ar
  30   12   15 1
  31   13   14 ar
  32   13   31 1

#	End of record

