#	Name: ASD01028599
#	Creating user name:	WinNT
#	Creation time:	15. 06. 2019 18:57

#	Modifying user name:	WinNT
#	Modification time:	15. 06. 2019 18:57

#	Program:	/corina/corina34_cracker 3.40 0067  02.08.2006

@<TRIPOS>MOLECULE
ASD01028599
  21   22    0    0    0
SMALL
NO_CHARGES


@<TRIPOS>ATOM
   1 N1            -0.0179     1.4659     0.0101 N.3     
   2 C2             0.0021    -0.0041     0.0020 C.3     
   3 C3             0.7497    -0.4921    -1.2417 C.3     
   4 O4             2.0659     0.0673    -1.2506 O.3     
   5 C5             2.0838     1.4973    -1.2437 C.3     
   6 C6             1.3496     2.0055    -0.0001 C.3     
   7 S7            -0.9819     3.6011     1.4489 S.3     
   8 C8            -0.7336     1.9470     1.0952 C.2     
   9 N9            -1.3126     1.2078     1.9900 N.2     
  10 C10           -1.9541     1.8361     2.9595 C.2     
  11 C11           -1.9145     3.1670     2.8789 C.2     
  12 Br12          -2.8551     0.9225     4.3485 Br      
  13 H13            0.5087    -0.3661     0.8967 H       
  14 H14           -1.0202    -0.3818    -0.0162 H       
  15 H15            0.8167    -1.5799    -1.2226 H       
  16 H16            0.2136    -0.1754    -2.1363 H       
  17 H17            3.1155     1.8483    -1.2262 H       
  18 H18            1.5864     1.8718    -2.1384 H       
  19 H19            1.3110     3.0946    -0.0198 H       
  20 H20            1.8778     1.6756     0.8946 H       
  21 H21           -2.3742     3.8580     3.5700 H       
@<TRIPOS>BOND
   1    1    2 1
   2    1    6 1
   3    1    8 1
   4    2    3 1
   5    2   13 1
   6    2   14 1
   7    3    4 1
   8    3   15 1
   9    3   16 1
  10    4    5 1
  11    5    6 1
  12    5   17 1
  13    5   18 1
  14    6   19 1
  15    6   20 1
  16    7    8 1
  17    7   11 1
  18    8    9 2
  19    9   10 1
  20   10   11 2
  21   10   12 1
  22   11   21 1

#	End of record

