#	Name: ASD00310208
#	Creating user name:	WinNT
#	Creation time:	15. 06. 2019 18:34

#	Modifying user name:	WinNT
#	Modification time:	15. 06. 2019 18:34

#	Program:	/corina/corina34_cracker 3.40 0067  02.08.2006

@<TRIPOS>MOLECULE
ASD00310208
  44   46    0    0    0
SMALL
NO_CHARGES


@<TRIPOS>ATOM
   1 C1             0.1887     1.1817     0.0575 C.2     
   2 C2             0.3025    -0.2935     0.3436 C.3     
   3 N3             1.2948     1.9516     0.0380 N.am    
   4 C4             1.5913     3.3735    -0.1925 C.3     
   5 C5             2.8327     3.2025     0.6939 C.3     
   6 C6             2.7355     1.7408     0.2444 C.3     
   7 O7             3.9919     3.8890     0.2174 O.3     
   8 C8             4.9597     4.1681     1.1266 C.ar    
   9 C9             6.1542     4.7468     0.7128 C.ar    
  10 C10            7.1383     5.0307     1.6331 C.ar    
  11 C11            6.9356     4.7374     2.9825 C.ar    
  12 C12            5.7352     4.1569     3.3949 C.ar    
  13 C13            4.7527     3.8800     2.4708 C.ar    
  14 O14            7.8696     4.7678     5.4184 O.3     
  15 B15            8.0558     5.0593     4.0343 Du      
  16 O16            9.2906     5.6517     3.6345 O.3     
  17 C17           10.4300     4.9628     4.1642 C.3     
  18 C18           10.2690     4.8248     5.6810 C.3     
  19 C19            8.9780     4.0597     5.9870 C.3     
  20 C20           11.4638     4.0597     6.2536 C.3     
  21 C21           10.2009     6.2153     6.3157 C.3     
  22 O22           -0.8976     1.6752    -0.1602 O.2     
  23 H23            1.3485    -0.5521     0.5080 H       
  24 H24           -0.2763    -0.5365     1.2347 H       
  25 H25           -0.0825    -0.8589    -0.5051 H       
  26 H26            1.8279     3.6048    -1.2310 H       
  27 H27            0.8454     4.0466     0.2304 H       
  28 H28            2.6468     3.3529     1.7573 H       
  29 H29            2.9607     1.0282     1.0379 H       
  30 H30            3.2801     1.5327    -0.6766 H       
  31 H31            6.3106     4.9736    -0.3315 H       
  32 H32            8.0663     5.4796     1.3110 H       
  33 H33            5.5756     3.9288     4.4384 H       
  34 H34            3.8219     3.4348     2.7900 H       
  35 H35           10.4998     3.9729     3.7133 H       
  36 H36           11.3342     5.5301     3.9435 H       
  37 H37            8.8468     3.9829     7.0664 H       
  38 H38            9.0342     3.0613     5.5532 H       
  39 H39           12.3826     4.6035     6.0339 H       
  40 H40           11.3489     3.9616     7.3331 H       
  41 H41           11.5111     3.0689     5.8017 H       
  42 H42            9.3490     6.7594     5.9081 H       
  43 H43           10.0864     6.1167     7.3952 H       
  44 H44           11.1190     6.7602     6.0960 H       
@<TRIPOS>BOND
   1    1    2 1
   2    1    3 am
   3    1   22 2
   4    2   23 1
   5    2   24 1
   6    2   25 1
   7    3    4 1
   8    3    6 1
   9    4    5 1
  10    4   26 1
  11    4   27 1
  12    5    6 1
  13    5    7 1
  14    5   28 1
  15    6   29 1
  16    6   30 1
  17    7    8 1
  18    8    9 ar
  19    8   13 ar
  20    9   10 ar
  21    9   31 1
  22   10   11 ar
  23   10   32 1
  24   11   12 ar
  25   11   15 1
  26   12   13 ar
  27   12   33 1
  28   13   34 1
  29   14   15 1
  30   14   19 1
  31   15   16 1
  32   16   17 1
  33   17   18 1
  34   17   35 1
  35   17   36 1
  36   18   19 1
  37   18   20 1
  38   18   21 1
  39   19   37 1
  40   19   38 1
  41   20   39 1
  42   20   40 1
  43   20   41 1
  44   21   42 1
  45   21   43 1
  46   21   44 1

#	End of record

