#	Name: ASD03730617
#	Creating user name:	WinNT
#	Creation time:	15. 06. 2019 20:44

#	Modifying user name:	WinNT
#	Modification time:	15. 06. 2019 20:44

#	Program:	/corina/corina34_cracker 3.40 0067  02.08.2006

@<TRIPOS>MOLECULE
ASD03730617
  68   74    0    0    0
SMALL
NO_CHARGES


@<TRIPOS>ATOM
   1 O1            -0.3527     1.2752     3.6820 O.3     
   2 C2            -0.1884    -0.0933     4.0984 C.3     
   3 O3             0.4160    -0.7282     2.9563 O.3     
   4 C4             1.0975     0.2608     2.3066 C.ar    
   5 C5             0.6223     1.4925     2.7510 C.ar    
   6 C6             2.1031     0.2089     1.3582 C.ar    
   7 C7             2.6429     1.3813     0.8380 C.ar    
   8 C8             2.1509     2.6059     1.2798 C.ar    
   9 C9             1.1543     2.6608     2.2317 C.ar    
  10 O10            3.6393     1.5508    -0.0777 O.3     
  11 C11            2.8987     3.6680     0.5193 C.3     
  12 C12            3.5642     2.8834    -0.6198 C.3     
  13 N13            2.4401     5.9067     0.5070 N.am    
  14 C14            1.9879     4.7429    -0.0008 C.2     
  15 C15            3.9065     4.3797     1.3718 C.ar    
  16 C16            4.9982     3.9598     2.1193 C.ar    
  17 C17            5.7588     4.8947     2.8211 C.ar    
  18 C18            5.4195     6.2321     2.7669 C.ar    
  19 C19            4.3342     6.6489     2.0233 C.ar    
  20 C20            3.5650     5.7263     1.3162 C.ar    
  21 O21            1.0331     4.5931    -0.7336 O.2     
  22 C22            5.3546     2.5206     2.1719 C.ar    
  23 C23            5.2912     1.8293     3.3805 C.ar    
  24 C24            5.6230     0.4917     3.4265 C.ar    
  25 C25            6.0202    -0.1666     2.2701 C.ar    
  26 C26            6.0848     0.5197     1.0647 C.ar    
  27 C27            5.7481     1.8559     1.0117 C.ar    
  28 O28            6.3466    -1.4845     2.3183 O.3     
  29 C29            7.6461    -1.8121     2.5425 C.ar    
  30 C30            8.5748    -0.8196     2.8217 C.ar    
  31 C31            9.8953    -1.1553     3.0491 C.ar    
  32 C32           10.2921    -2.4789     2.9984 C.ar    
  33 C33            9.3686    -3.4698     2.7204 C.ar    
  34 C34            8.0457    -3.1401     2.4983 C.ar    
  35 C35            1.8241     7.2091     0.2415 C.3     
  36 C36            0.7557     7.4931     1.2993 C.3     
  37 C37            0.1124     8.8533     1.0220 C.3     
  38 C38           -0.9560     9.1372     2.0798 C.3     
  39 C39           -1.5994    10.4974     1.8025 C.3     
  40 H40            0.4715    -0.1536     4.9639 H       
  41 H41           -1.1553    -0.5447     4.3205 H       
  42 H42            2.4721    -0.7479     1.0194 H       
  43 H43            0.7878     3.6177     2.5729 H       
  44 H44            4.5605     3.2734    -0.8281 H       
  45 H45            2.9446     2.9022    -1.5164 H       
  46 H46            6.6092     4.5741     3.4046 H       
  47 H47            6.0073     6.9570     3.3105 H       
  48 H48            4.0789     7.6978     1.9890 H       
  49 H49            4.9827     2.3409     4.2803 H       
  50 H50            5.5744    -0.0444     4.3628 H       
  51 H51            6.3946     0.0053     0.1670 H       
  52 H52            5.7938     2.3880     0.0730 H       
  53 H53            8.2656     0.2144     2.8607 H       
  54 H54           10.6186    -0.3832     3.2664 H       
  55 H55           11.3251    -2.7392     3.1758 H       
  56 H56            9.6812    -4.5029     2.6810 H       
  57 H57            7.3240    -3.9149     2.2856 H       
  58 H58            2.5874     7.9864     0.2783 H       
  59 H59            1.3635     7.1986    -0.7463 H       
  60 H60           -0.0076     6.7159     1.2626 H       
  61 H61            1.2163     7.5036     2.2872 H       
  62 H62            0.8757     9.6305     1.0588 H       
  63 H63           -0.3482     8.8427     0.0342 H       
  64 H64           -1.7193     8.3600     2.0431 H       
  65 H65           -0.4954     9.1478     3.0677 H       
  66 H66           -2.3605    10.6997     2.5561 H       
  67 H67           -0.8361    11.2747     1.8393 H       
  68 H68           -2.0599    10.4869     0.8146 H       
@<TRIPOS>BOND
   1    1    2 1
   2    1    5 1
   3    2    3 1
   4    2   40 1
   5    2   41 1
   6    3    4 1
   7    4    5 ar
   8    4    6 ar
   9    5    9 ar
  10    6    7 ar
  11    6   42 1
  12    7    8 ar
  13    7   10 1
  14    8    9 ar
  15    8   11 1
  16    9   43 1
  17   10   12 1
  18   11   12 1
  19   11   14 1
  20   11   15 1
  21   12   44 1
  22   12   45 1
  23   13   14 am
  24   13   20 1
  25   13   35 1
  26   14   21 2
  27   15   16 ar
  28   15   20 ar
  29   16   17 ar
  30   16   22 1
  31   17   18 ar
  32   17   46 1
  33   18   19 ar
  34   18   47 1
  35   19   20 ar
  36   19   48 1
  37   22   23 ar
  38   22   27 ar
  39   23   24 ar
  40   23   49 1
  41   24   25 ar
  42   24   50 1
  43   25   26 ar
  44   25   28 1
  45   26   27 ar
  46   26   51 1
  47   27   52 1
  48   28   29 1
  49   29   30 ar
  50   29   34 ar
  51   30   31 ar
  52   30   53 1
  53   31   32 ar
  54   31   54 1
  55   32   33 ar
  56   32   55 1
  57   33   34 ar
  58   33   56 1
  59   34   57 1
  60   35   36 1
  61   35   58 1
  62   35   59 1
  63   36   37 1
  64   36   60 1
  65   36   61 1
  66   37   38 1
  67   37   62 1
  68   37   63 1
  69   38   39 1
  70   38   64 1
  71   38   65 1
  72   39   66 1
  73   39   67 1
  74   39   68 1

#	End of record

