#	Name: ASD03092156
#	Creating user name:	WinNT
#	Creation time:	15. 06. 2019 20:32

#	Modifying user name:	WinNT
#	Modification time:	15. 06. 2019 20:32

#	Program:	/corina/corina34_cracker 3.40 0067  02.08.2006

@<TRIPOS>MOLECULE
ASD03092156
  50   52    0    0    0
SMALL
NO_CHARGES


@<TRIPOS>ATOM
   1 N1            -0.3168     1.4435    -0.3249 N.pl3   
   2 C2            -0.3595     0.1570     0.1243 C.2     
   3 C3            -1.6647    -0.1377     0.3984 C.2     
   4 C4            -2.4302     0.9986     0.1078 C.2     
   5 N5            -1.6249     1.9442    -0.3181 N.2     
   6 N6            -3.8185     1.1095     0.2530 N.pl3   
   7 C7            -4.4467     2.3395     0.0430 C.ar    
   8 C8            -5.7757     2.3826    -0.3579 C.ar    
   9 C9            -6.3941     3.6014    -0.5649 C.ar    
  10 C10           -5.6899     4.7772    -0.3729 C.ar    
  11 C11           -3.7447     3.5225     0.2401 C.ar    
  12 C12            0.7957    -0.7530     0.2849 C.ar    
  13 C13            0.8845     2.1745    -0.7356 C.3     
  14 C14            1.9853    -0.5359    -0.4192 C.ar    
  15 C15            3.0379    -1.4091    -0.2390 C.ar    
  16 N16            2.9332    -2.4360     0.5827 N.ar    
  17 C17            1.8299    -2.6768     1.2655 C.ar    
  18 C18            0.7311    -1.8516     1.1497 C.ar    
  19 C19           -4.3663     4.7367     0.0257 C.ar    
  20 Cl20          -8.0551     3.6573    -1.0665 Cl      
  21 C21            1.0378     2.0905    -2.2556 C.3     
  22 C22            1.7717    -3.8668     2.1883 C.3     
  23 O23            0.4880    -3.9225     2.8135 O.3     
  24 O24           -0.0831     2.7170    -2.8827 O.3     
  25 C25            0.3270    -5.0205     3.7138 C.3     
  26 C26            2.3235     2.8040    -2.6787 C.3     
  27 C27            2.5416     2.6137    -4.1811 C.3     
  28 H28           -2.0396    -1.0789     0.7724 H       
  29 H29           -4.3440     0.3324     0.4995 H       
  30 H30           -6.3253     1.4650    -0.5080 H       
  31 H31           -6.1749     5.7285    -0.5352 H       
  32 H32           -2.7125     3.4921     0.5561 H       
  33 H33            0.7945     3.2188    -0.4366 H       
  34 H34            1.7593     1.7337    -0.2574 H       
  35 H35            2.0779     0.3025    -1.0937 H       
  36 H36            3.9601    -1.2502    -0.7782 H       
  37 H37           -0.1686    -2.0548     1.7115 H       
  38 H38           -3.8194     5.6561     0.1740 H       
  39 H39            1.0861     1.0446    -2.5587 H       
  40 H40            1.9367    -4.7793     1.6154 H       
  41 H41            2.5439    -3.7726     2.9518 H       
  42 H42           -0.1881     3.6516    -2.6577 H       
  43 H43           -0.6730    -4.9919     4.1466 H       
  44 H44            0.4620    -5.9569     3.1725 H       
  45 H45            1.0692    -4.9502     4.5089 H       
  46 H46            2.2390     3.8676    -2.4557 H       
  47 H47            3.1684     2.3842    -2.1329 H       
  48 H48            3.4575     3.1219    -4.4825 H       
  49 H49            2.6260     1.5501    -4.4041 H       
  50 H50            1.6966     3.0334    -4.7269 H       
@<TRIPOS>BOND
   1    1    2 1
   2    1   13 1
   3    1    5 1
   4    2    3 2
   5    2   12 1
   6    3    4 1
   7    3   28 1
   8    4    5 2
   9    4    6 1
  10    6    7 1
  11    6   29 1
  12    7    8 ar
  13    7   11 ar
  14    8    9 ar
  15    8   30 1
  16    9   10 ar
  17    9   20 1
  18   10   19 ar
  19   10   31 1
  20   11   19 ar
  21   11   32 1
  22   12   14 ar
  23   12   18 ar
  24   13   21 1
  25   13   33 1
  26   13   34 1
  27   14   15 ar
  28   14   35 1
  29   15   16 ar
  30   15   36 1
  31   16   17 ar
  32   17   18 ar
  33   17   22 1
  34   18   37 1
  35   19   38 1
  36   21   24 1
  37   21   26 1
  38   21   39 1
  39   22   23 1
  40   22   40 1
  41   22   41 1
  42   23   25 1
  43   24   42 1
  44   25   43 1
  45   25   44 1
  46   25   45 1
  47   26   27 1
  48   26   46 1
  49   26   47 1
  50   27   48 1
  51   27   49 1
  52   27   50 1

#	End of record

