#	Name: ASD03092338
#	Creating user name:	WinNT
#	Creation time:	15. 06. 2019 20:32

#	Modifying user name:	WinNT
#	Modification time:	15. 06. 2019 20:32

#	Program:	/corina/corina34_cracker 3.40 0067  02.08.2006

@<TRIPOS>MOLECULE
ASD03092338
  62   65    0    0    0
SMALL
NO_CHARGES


@<TRIPOS>ATOM
   1 C1             0.3381     1.9868     0.1444 C.2     
   2 C2             0.5503     0.5257     0.2227 C.ar    
   3 C3             1.8455     0.0051     0.2343 C.ar    
   4 C4             2.0366    -1.3589     0.3080 C.ar    
   5 C5             0.9478    -2.2108     0.3699 C.ar    
   6 C6            -0.3383    -1.7014     0.3588 C.ar    
   7 C7            -0.5432    -0.3386     0.2911 C.ar    
   8 O8             1.2925     2.7375     0.0899 O.2     
   9 N9            -0.9137     2.4860     0.1277 N.am    
  10 C10            3.4341    -1.9228     0.3207 C.3     
  11 F11            3.8843    -2.0236     1.6414 F       
  12 F12            3.4304    -3.1915    -0.2689 F       
  13 F13            4.2848    -1.0767    -0.3987 F       
  14 C14           -1.1240     3.9337     0.0501 C.3     
  15 S15           -4.9831     4.7277    -0.6389 S.3     
  16 C16           -4.5795     4.5797     1.0156 C.2     
  17 N17           -3.3130     4.3230     1.1493 N.2     
  18 C18           -2.6022     4.2271     0.0467 C.2     
  19 C19           -3.3087     4.4138    -1.0878 C.2     
  20 C20           -2.5481     5.2853    -4.6608 C.ar    
  21 C21           -3.0704     5.3721    -3.3885 C.ar    
  22 C22           -2.7731     4.3635    -2.4622 C.ar    
  23 C23           -1.9528     3.3060    -2.8774 C.ar    
  24 C24           -1.4745     3.2995    -4.1697 C.ar    
  25 N25           -1.7790     4.2708    -5.0105 N.ar    
  26 C26           -0.5913     2.1684    -4.6296 C.3     
  27 C27           -2.8648     6.3597    -5.6689 C.3     
  28 N28           -5.4733     4.7146     2.0623 N.3     
  29 C29           -6.8266     5.0033     1.5656 C.3     
  30 C30           -7.7691     5.2036     2.7553 C.3     
  31 O31           -7.7340     4.0399     3.5860 O.3     
  32 C32           -6.4312     3.7297     4.0877 C.3     
  33 C33           -5.4751     3.5145     2.9115 C.3     
  34 C34           -6.4987     2.4549     4.9311 C.3     
  35 C35           -9.1947     5.4250     2.2460 C.3     
  36 H36            2.6961     0.6689     0.1854 H       
  37 H37            1.1029    -3.2781     0.4268 H       
  38 H38           -1.1837    -2.3717     0.4073 H       
  39 H39           -1.5477     0.0581     0.2867 H       
  40 H40           -1.6754     1.8867     0.1671 H       
  41 H41           -0.6600     4.4149     0.9111 H       
  42 H42           -0.6753     4.3174    -0.8661 H       
  43 H43           -3.6986     6.2051    -3.1093 H       
  44 H44           -1.6990     2.5084    -2.1948 H       
  45 H45           -1.2082     1.3715    -5.0449 H       
  46 H46            0.0960     2.5316    -5.3937 H       
  47 H47           -0.0228     1.7839    -3.7827 H       
  48 H48           -2.1138     7.1474    -5.6084 H       
  49 H49           -2.8611     5.9304    -6.6708 H       
  50 H50           -3.8485     6.7786    -5.4567 H       
  51 H51           -6.8065     5.9097     0.9605 H       
  52 H52           -7.1777     4.1681     0.9596 H       
  53 H53           -7.4487     6.0717     3.3313 H       
  54 H54           -6.0720     4.5550     4.7025 H       
  55 H55           -5.8047     2.6555     2.3270 H       
  56 H56           -4.4686     3.3342     3.2889 H       
  57 H57           -6.8562     1.6300     4.3148 H       
  58 H58           -5.5055     2.2191     5.3132 H       
  59 H59           -7.1824     2.6075     5.7661 H       
  60 H60           -9.5146     4.5554     1.6719 H       
  61 H61           -9.8653     5.5675     3.0935 H       
  62 H62           -9.2200     6.3098     1.6099 H       
@<TRIPOS>BOND
   1    1    2 1
   2    1    8 2
   3    1    9 am
   4    2    3 ar
   5    2    7 ar
   6    3    4 ar
   7    3   36 1
   8    4    5 ar
   9    4   10 1
  10    5    6 ar
  11    5   37 1
  12    6    7 ar
  13    6   38 1
  14    7   39 1
  15    9   14 1
  16    9   40 1
  17   10   11 1
  18   10   12 1
  19   10   13 1
  20   14   18 1
  21   14   41 1
  22   14   42 1
  23   15   16 1
  24   15   19 1
  25   16   17 2
  26   16   28 1
  27   17   18 1
  28   18   19 2
  29   19   22 1
  30   20   21 ar
  31   20   25 ar
  32   20   27 1
  33   21   22 ar
  34   21   43 1
  35   22   23 ar
  36   23   24 ar
  37   23   44 1
  38   24   25 ar
  39   24   26 1
  40   26   45 1
  41   26   46 1
  42   26   47 1
  43   27   48 1
  44   27   49 1
  45   27   50 1
  46   28   29 1
  47   28   33 1
  48   29   30 1
  49   29   51 1
  50   29   52 1
  51   30   31 1
  52   30   35 1
  53   30   53 1
  54   31   32 1
  55   32   33 1
  56   32   34 1
  57   32   54 1
  58   33   55 1
  59   33   56 1
  60   34   57 1
  61   34   58 1
  62   34   59 1
  63   35   60 1
  64   35   61 1
  65   35   62 1

#	End of record

