#	Name: ASD00170509
#	Creating user name:	WinNT
#	Creation time:	15. 06. 2019 18:32

#	Modifying user name:	WinNT
#	Modification time:	15. 06. 2019 18:32

#	Program:	/corina/corina34_cracker 3.40 0067  02.08.2006

@<TRIPOS>MOLECULE
ASD00170509
  50   53    0    0    0
SMALL
NO_CHARGES


@<TRIPOS>ATOM
   1 C1            -0.5530     1.0947    -0.9959 C.ar    
   2 C2            -0.4746    -0.2852    -0.9683 C.ar    
   3 C3             0.7512    -0.9065    -0.8284 C.ar    
   4 C4             1.9064    -0.1437    -0.7156 C.ar    
   5 C5             1.8254     1.2428    -0.7440 C.ar    
   6 C6             0.5961     1.8585    -0.8837 C.ar    
   7 N7             3.1471    -0.7693    -0.5735 N.3     
   8 C8             4.2279     0.2212    -0.4721 C.3     
   9 C9             5.5572    -0.5004    -0.2383 C.3     
  10 N10            5.8055    -1.4350    -1.3448 N.3     
  11 C11            4.7247    -2.4256    -1.4463 C.3     
  12 C12            3.3953    -1.7040    -1.6801 C.3     
  13 C13            7.1103    -2.0931    -1.1954 C.3     
  14 C14            7.2264    -3.2120    -2.1982 C.2     
  15 C15            7.0263    -4.4853    -1.8958 C.2     
  16 S16            7.2455    -5.5061    -3.3057 S.3     
  17 C17            7.6119    -4.1761    -4.3068 C.2     
  18 C18            7.5619    -3.0025    -3.5909 C.2     
  19 C19            7.8283    -1.6867    -4.1715 C.2     
  20 O20            6.9105    -1.0181    -4.6114 O.2     
  21 C21            9.2123    -1.1682    -4.2244 C.ar    
  22 C22            9.4848     0.0368    -4.8744 C.ar    
  23 C23           10.7773     0.5152    -4.9205 C.ar    
  24 C24           11.8041    -0.1973    -4.3235 C.ar    
  25 C25           11.5398    -1.3936    -3.6771 C.ar    
  26 C26           10.2504    -1.8791    -3.6195 C.ar    
  27 Cl27          13.4289     0.4109    -4.3861 Cl      
  28 N28            7.9117    -4.2640    -5.6511 N.pl3   
  29 Cl29           0.4929     3.5911    -0.9200 Cl      
  30 H30           -1.5122     1.5778    -1.1095 H       
  31 H31           -1.3729    -0.8782    -1.0560 H       
  32 H32            0.8112    -1.9846    -0.8062 H       
  33 H33            2.7218     1.8387    -0.6562 H       
  34 H34            4.2833     0.7950    -1.3971 H       
  35 H35            4.0276     0.8938     0.3620 H       
  36 H36            6.3645     0.2306    -0.1916 H       
  37 H37            5.5112    -1.0523     0.7005 H       
  38 H38            4.9249    -3.0982    -2.2803 H       
  39 H39            4.6692    -2.9993    -0.5212 H       
  40 H40            2.5881    -2.4349    -1.7267 H       
  41 H41            3.4413    -1.1521    -2.6189 H       
  42 H42            7.9051    -1.3673    -1.3673 H       
  43 H43            7.1998    -2.4979    -0.1873 H       
  44 H44            6.7639    -4.8472    -0.9126 H       
  45 H45            8.6850     0.5931    -5.3406 H       
  46 H46           10.9894     1.4472    -5.4234 H       
  47 H47           12.3445    -1.9448    -3.2134 H       
  48 H48           10.0455    -2.8117    -3.1150 H       
  49 H49            8.0003    -5.1332    -6.0724 H       
  50 H50            8.0337    -3.4566    -6.1746 H       
@<TRIPOS>BOND
   1    1    2 ar
   2    1    6 ar
   3    1   30 1
   4    2    3 ar
   5    2   31 1
   6    3    4 ar
   7    3   32 1
   8    4    5 ar
   9    4    7 1
  10    5    6 ar
  11    5   33 1
  12    6   29 1
  13    7    8 1
  14    7   12 1
  15    8    9 1
  16    8   34 1
  17    8   35 1
  18    9   10 1
  19    9   36 1
  20    9   37 1
  21   10   11 1
  22   10   13 1
  23   11   12 1
  24   11   38 1
  25   11   39 1
  26   12   40 1
  27   12   41 1
  28   13   14 1
  29   13   42 1
  30   13   43 1
  31   14   15 2
  32   14   18 1
  33   15   16 1
  34   15   44 1
  35   16   17 1
  36   17   18 2
  37   17   28 1
  38   18   19 1
  39   19   20 2
  40   19   21 1
  41   21   22 ar
  42   21   26 ar
  43   22   23 ar
  44   22   45 1
  45   23   24 ar
  46   23   46 1
  47   24   25 ar
  48   24   27 1
  49   25   26 ar
  50   25   47 1
  51   26   48 1
  52   28   49 1
  53   28   50 1

#	End of record

