#	Name: ASD01940591
#	Creating user name:	WinNT
#	Creation time:	15. 06. 2019 20:12

#	Modifying user name:	WinNT
#	Modification time:	15. 06. 2019 20:12

#	Program:	/corina/corina34_cracker 3.40 0067  02.08.2006

@<TRIPOS>MOLECULE
ASD01940591
  69   72    0    0    0
SMALL
NO_CHARGES


@<TRIPOS>ATOM
   1 C1             1.2200     3.7141     4.5679 C.ar    
   2 C2             1.2216     3.8842     5.9457 C.ar    
   3 C3             2.2209     4.6371     6.5497 C.ar    
   4 C4             3.2116     5.2160     5.7800 C.ar    
   5 C5             3.2117     5.0478     4.4087 C.ar    
   6 C6             2.2159     4.2962     3.7994 C.ar    
   7 N7             0.2196     3.2997     6.7236 N.am    
   8 S8            -1.0002     4.2341     7.3412 S.o2    
   9 C9            -1.8681     4.8690     5.8803 C.3     
  10 O10           -1.8214     3.3155     8.0490 O.2     
  11 O11           -0.3270     5.2868     8.0179 O.2     
  12 O12            2.2176     4.1313     2.4507 O.3     
  13 C13            3.1467     4.8100     1.7258 C.ar    
  14 C14            4.2911     4.1623     1.2838 C.ar    
  15 C15            5.2379     4.8513     0.5458 C.ar    
  16 C16            5.0473     6.1891     0.2450 C.ar    
  17 C17            3.9048     6.8443     0.6830 C.ar    
  18 C18            2.9479     6.1521     1.4219 C.ar    
  19 N19            3.7120     8.1972     0.3787 N.pl3   
  20 C20            4.4475     8.7942    -0.6503 C.ar    
  21 C21            4.8378     8.0445    -1.7520 C.ar    
  22 C22            5.5642     8.6367    -2.7669 C.ar    
  23 C23            5.9039     9.9753    -2.6873 C.ar    
  24 C24            5.5177    10.7262    -1.5915 C.ar    
  25 C25            4.7847    10.1416    -0.5751 C.ar    
  26 F26            4.4023    10.8763     0.4922 F       
  27 I27            7.0063    10.8673    -4.2294 I       
  28 N28            1.7880     6.8095     1.8630 N.am    
  29 S29            0.3018     6.3195     1.3214 S.o2    
  30 C30           -2.9539     5.8532     6.3198 C.3     
  31 F31            6.3513     4.2168     0.1183 F       
  32 O32            0.3088     4.9105     1.5053 O.2     
  33 O33           -0.6169     7.1455     2.0236 O.2     
  34 C34            0.3057     6.7309    -0.4454 C.3     
  35 C35           -1.0267     6.5352    -1.1715 C.3     
  36 C36           -1.3767     5.0461    -1.2025 C.3     
  37 O37           -1.6367     4.5901     0.1266 O.3     
  38 C38            1.1933     7.8919    -0.8985 C.3     
  39 C39            1.5872     6.4510    -1.2330 C.3     
  40 C40           -2.6206     4.8325    -2.0674 C.3     
  41 O41           -2.8796     3.4327    -2.1918 O.3     
  42 H42            0.4468     3.1257     4.0963 H       
  43 H43            2.2232     4.7701     7.6215 H       
  44 H44            3.9872     5.8014     6.2513 H       
  45 H45            3.9872     5.5019     3.8097 H       
  46 H46            0.2382     2.3465     6.9021 H       
  47 H47           -1.1581     5.3784     5.2287 H       
  48 H48           -2.3260     4.0398     5.3409 H       
  49 H49            4.4438     3.1187     1.5163 H       
  50 H50            5.7884     6.7235    -0.3308 H       
  51 H51            3.0684     8.7206     0.8815 H       
  52 H52            4.5740     6.9992    -1.8153 H       
  53 H53            5.8678     8.0535    -3.6237 H       
  54 H54            5.7850    11.7709    -1.5319 H       
  55 H55            1.8574     7.5506     2.4850 H       
  56 H56           -3.6639     5.3438     6.9714 H       
  57 H57           -2.4960     6.6823     6.8592 H       
  58 H58           -3.4755     6.2346     5.4420 H       
  59 H59           -1.8102     7.0817    -0.6465 H       
  60 H60           -0.9431     6.9101    -2.1915 H       
  61 H61           -0.5416     4.4852    -1.6222 H       
  62 H62           -2.3693     5.0464     0.5628 H       
  63 H63            0.8281     8.5160    -1.7140 H       
  64 H64            1.7749     8.4085    -0.1349 H       
  65 H65            2.4279     6.0197    -0.6896 H       
  66 H66            1.4810     6.1278    -2.2686 H       
  67 H67           -3.4761     5.3201    -1.6001 H       
  68 H68           -2.4537     5.2604    -3.0559 H       
  69 H69           -3.6560     3.2225    -2.7286 H       
@<TRIPOS>BOND
   1    1    2 ar
   2    1    6 ar
   3    1   42 1
   4    2    3 ar
   5    2    7 1
   6    3    4 ar
   7    3   43 1
   8    4    5 ar
   9    4   44 1
  10    5    6 ar
  11    5   45 1
  12    6   12 1
  13    7    8 am
  14    7   46 1
  15    8    9 1
  16    8   10 2
  17    8   11 2
  18    9   30 1
  19    9   47 1
  20    9   48 1
  21   12   13 1
  22   13   14 ar
  23   13   18 ar
  24   14   15 ar
  25   14   49 1
  26   15   16 ar
  27   15   31 1
  28   16   17 ar
  29   16   50 1
  30   17   18 ar
  31   17   19 1
  32   18   28 1
  33   19   20 1
  34   19   51 1
  35   20   21 ar
  36   20   25 ar
  37   21   22 ar
  38   21   52 1
  39   22   23 ar
  40   22   53 1
  41   23   24 ar
  42   23   27 1
  43   24   25 ar
  44   24   54 1
  45   25   26 1
  46   28   29 am
  47   28   55 1
  48   29   32 2
  49   29   33 2
  50   29   34 1
  51   30   56 1
  52   30   57 1
  53   30   58 1
  54   34   35 1
  55   34   38 1
  56   34   39 1
  57   35   36 1
  58   35   59 1
  59   35   60 1
  60   36   37 1
  61   36   40 1
  62   36   61 1
  63   37   62 1
  64   38   39 1
  65   38   63 1
  66   38   64 1
  67   39   65 1
  68   39   66 1
  69   40   41 1
  70   40   67 1
  71   40   68 1
  72   41   69 1

#	End of record

