#	Name: ASD01881343
#	Creating user name:	WinNT
#	Creation time:	15. 06. 2019 19:42

#	Modifying user name:	WinNT
#	Modification time:	15. 06. 2019 19:42

#	Program:	/corina/corina34_cracker 3.40 0067  02.08.2006

@<TRIPOS>MOLECULE
ASD01881343
  49   53    0    0    0
SMALL
NO_CHARGES


@<TRIPOS>ATOM
   1 C1            -0.0169     1.3978     0.0097 C.2     
   2 C2             0.0021    -0.0041     0.0020 C.2     
   3 C3            -1.2218    -0.7047     0.0104 C.2     
   4 C4            -2.3968    -0.0477     0.0257 C.2     
   5 N5            -2.4614     1.3153     0.0336 N.pl3   
   6 C6            -1.3172     2.0713     0.0319 C.2     
   7 C7            -3.5155     2.1913     0.0484 C.2     
   8 C8            -2.9977     3.4378     0.0496 C.2     
   9 N9            -1.6638     3.3458     0.0404 N.2     
  10 C10            1.2864    -0.7371    -0.0152 C.ar    
  11 C11            1.6486    -1.5295     1.0688 C.ar    
  12 C12            2.8617    -2.2151     1.0398 C.ar    
  13 C13            3.7078    -2.1018    -0.0800 C.ar    
  14 C14            3.3249    -1.3024    -1.1547 C.ar    
  15 C15            2.1346    -0.6372    -1.1261 C.ar    
  16 C16           -4.9786     1.8304     0.0604 C.3     
  17 C17            3.5451    -3.1130     1.9748 C.2     
  18 C18            4.7025    -3.4716     1.3977 C.2     
  19 N19            4.8163    -2.8772     0.1704 N.pl3   
  20 C20            5.9503    -3.0428    -0.7422 C.3     
  21 C21            6.9271    -1.9132    -0.5397 C.ar    
  22 C22            7.9486    -2.0405     0.3831 C.ar    
  23 C23            8.8452    -1.0055     0.5693 C.ar    
  24 C24            8.7202     0.1592    -0.1688 C.ar    
  25 C25            7.6967     0.2856    -1.0927 C.ar    
  26 C26            6.8044    -0.7528    -1.2810 C.ar    
  27 F27            9.5959     1.1719     0.0127 F       
  28 C28           -5.5176     1.8381    -1.3715 C.3     
  29 F29           -4.8134     0.9048    -2.1398 F       
  30 F30           -6.8758     1.5030    -1.3603 F       
  31 F31           -5.3564     3.1133    -1.9237 F       
  32 C32            1.2014     2.1503     0.0021 C.1     
  33 N33            2.1679     2.7472    -0.0039 N.1     
  34 H34           -1.2164    -1.7847     0.0042 H       
  35 H35           -3.3152    -0.6160     0.0314 H       
  36 H36           -3.5659     4.3562     0.0599 H       
  37 H37            0.9960    -1.6126     1.9253 H       
  38 H38            3.9710    -1.2124    -2.0155 H       
  39 H39            1.8470    -0.0199    -1.9644 H       
  40 H40           -5.1042     0.8368     0.4906 H       
  41 H41           -5.5273     2.5576     0.6590 H       
  42 H42            3.1860    -3.4263     2.9440 H       
  43 H43            5.4358    -4.1317     1.8371 H       
  44 H44            6.4453    -3.9922    -0.5381 H       
  45 H45            5.5925    -3.0335    -1.7717 H       
  46 H46            8.0457    -2.9490     0.9589 H       
  47 H47            9.6430    -1.1051     1.2905 H       
  48 H48            7.5982     1.1937    -1.6690 H       
  49 H49            6.0060    -0.6545    -2.0016 H       
@<TRIPOS>BOND
   1    1    2 2
   2    1   32 1
   3    1    6 1
   4    2    3 1
   5    2   10 1
   6    3    4 2
   7    3   34 1
   8    4    5 1
   9    4   35 1
  10    5    6 1
  11    5    7 1
  12    6    9 2
  13    7    8 2
  14    7   16 1
  15    8    9 1
  16    8   36 1
  17   10   11 ar
  18   10   15 ar
  19   11   12 ar
  20   11   37 1
  21   12   13 ar
  22   12   17 1
  23   13   14 ar
  24   13   19 1
  25   14   15 ar
  26   14   38 1
  27   15   39 1
  28   16   28 1
  29   16   40 1
  30   16   41 1
  31   17   18 2
  32   17   42 1
  33   18   19 1
  34   18   43 1
  35   19   20 1
  36   20   21 1
  37   20   44 1
  38   20   45 1
  39   21   22 ar
  40   21   26 ar
  41   22   23 ar
  42   22   46 1
  43   23   24 ar
  44   23   47 1
  45   24   25 ar
  46   24   27 1
  47   25   26 ar
  48   25   48 1
  49   26   49 1
  50   28   29 1
  51   28   30 1
  52   28   31 1
  53   32   33 3

#	End of record

