#	Name: ASD05430585
#	Creating user name:	WinNT
#	Creation time:	15. 06. 2019 21:00

#	Modifying user name:	WinNT
#	Modification time:	15. 06. 2019 21:00

#	Program:	/corina/corina34_cracker 3.40 0067  02.08.2006

@<TRIPOS>MOLECULE
ASD05430585
  41   42    0    0    0
SMALL
NO_CHARGES


@<TRIPOS>ATOM
   1 C1            -0.0168     1.3894     0.0097 C.ar    
   2 C2             0.0021    -0.0041     0.0020 C.ar    
   3 C3             1.1218     2.1397     0.0028 C.ar    
   4 C4             2.3557     1.5056    -0.0312 C.ar    
   5 C5             2.4028     0.1244    -0.0575 C.ar    
   6 C6             1.2450    -0.6254    -0.0412 C.ar    
   7 C7             1.0408     3.6443     0.0315 C.3     
   8 C8             1.3281    -2.1299    -0.0700 C.3     
   9 C9             2.0443    -2.5767    -1.3460 C.3     
  10 C10            2.1081    -2.6210     1.1512 C.3     
  11 C11            1.7559     4.1698     1.2778 C.3     
  12 C12            1.7111     4.2150    -1.2198 C.3     
  13 C13           -1.3789    -0.5946     0.0545 C.3     
  14 O14           -2.4451     0.2648    -0.3810 O.3     
  15 Si15          -1.8602     1.7706     0.0021 Si      
  16 C16           -2.4481     2.3221     1.6816 C.3     
  17 C17           -2.2911     3.0219    -1.3091 C.3     
  18 H18            3.2678     2.0840    -0.0375 H       
  19 H19            3.3598    -0.3749    -0.0915 H       
  20 H20           -0.0047     3.9515     0.0558 H       
  21 H21            0.3224    -2.5498    -0.0517 H       
  22 H22            3.0500    -2.1568    -1.3643 H       
  23 H23            2.1044    -3.6649    -1.3669 H       
  24 H24            1.4886    -2.2268    -2.2161 H       
  25 H25            3.1138    -2.2011     1.1330 H       
  26 H26            1.5979    -2.3027     2.0603 H       
  27 H27            2.1682    -3.7092     1.1304 H       
  28 H28            2.8014     3.8626     1.2535 H       
  29 H29            1.6974     5.2581     1.2986 H       
  30 H30            1.2784     3.7632     2.1693 H       
  31 H31            2.7567     3.9078    -1.2441 H       
  32 H32            1.2017     3.8406    -2.1077 H       
  33 H33            1.6526     5.3033    -1.1991 H       
  34 H34           -1.3894    -1.4908    -0.5659 H       
  35 H35           -1.5819    -0.8942     1.0827 H       
  36 H36           -2.1044     1.6154     2.4370 H       
  37 H37           -2.0466     3.3116     1.9003 H       
  38 H38           -3.5373     2.3620     1.6903 H       
  39 H39           -3.3747     3.0868    -1.4073 H       
  40 H40           -1.8929     3.9963    -1.0263 H       
  41 H41           -1.8577     2.7147    -2.2609 H       
@<TRIPOS>BOND
   1    1    2 ar
   2    1    3 ar
   3    1   15 1
   4    2   13 1
   5    2    6 ar
   6    3    4 ar
   7    3    7 1
   8    4    5 ar
   9    4   18 1
  10    5    6 ar
  11    5   19 1
  12    6    8 1
  13    7   11 1
  14    7   12 1
  15    7   20 1
  16    8    9 1
  17    8   10 1
  18    8   21 1
  19    9   22 1
  20    9   23 1
  21    9   24 1
  22   10   25 1
  23   10   26 1
  24   10   27 1
  25   11   28 1
  26   11   29 1
  27   11   30 1
  28   12   31 1
  29   12   32 1
  30   12   33 1
  31   13   14 1
  32   13   34 1
  33   13   35 1
  34   14   15 1
  35   15   16 1
  36   15   17 1
  37   16   36 1
  38   16   37 1
  39   16   38 1
  40   17   39 1
  41   17   40 1
  42   17   41 1

#	End of record

