#	Name: ASD01813788
#	Creating user name:	WinNT
#	Creation time:	15. 06. 2019 19:31

#	Modifying user name:	WinNT
#	Modification time:	15. 06. 2019 19:31

#	Program:	/corina/corina34_cracker 3.40 0067  02.08.2006

@<TRIPOS>MOLECULE
ASD01813788
  51   54    0    0    0
SMALL
NO_CHARGES


@<TRIPOS>ATOM
   1 C1             0.0631     1.3496     0.2049 C.2     
   2 C2             0.0610    -0.0502     0.1380 C.2     
   3 C3             1.2475    -0.7224     0.0997 C.2     
   4 C4             2.4518     0.0003     0.1280 C.2     
   5 N5             2.4244     1.3669     0.1938 N.am    
   6 C6             1.2326     2.0279     0.2313 C.2     
   7 C7             3.6725    -0.6882     0.0888 C.2     
   8 C8             4.8481     0.0042     0.1158 C.2     
   9 C9             4.8162     1.4095     0.1830 C.2     
  10 C10            3.5727     2.0729     0.2219 C.2     
  11 O11            3.5357     3.2904     0.2798 O.2     
  12 C12            6.0637     2.1761     0.2136 C.2     
  13 O13            7.1336     1.5983     0.1809 O.2     
  14 O14            6.0262     3.5230     0.2781 O.3     
  15 C15            3.6863    -2.1935     0.0174 C.3     
  16 N16            3.8041    -2.6161    -1.3846 N.3     
  17 C17            4.0587    -4.0603    -1.4796 C.3     
  18 C18            4.0955    -4.4732    -2.9529 C.3     
  19 N19            5.1423    -3.7101    -3.6468 N.3     
  20 C20            4.8878    -2.2659    -3.5518 C.3     
  21 C21            4.8509    -1.8530    -2.0785 C.3     
  22 C22            5.2543    -4.1120    -4.9798 C.ar    
  23 C23            6.4846    -4.5134    -5.4848 C.ar    
  24 C24            6.5917    -4.9106    -6.8031 C.ar    
  25 C25            5.4761    -4.9090    -7.6202 C.ar    
  26 C26            4.2499    -4.5099    -7.1207 C.ar    
  27 C27            4.1346    -4.1166    -5.8019 C.ar    
  28 C28            4.4007    -5.9689    -3.0563 C.3     
  29 H29           -0.8724     1.8886     0.2310 H       
  30 H30           -0.8727    -0.5926     0.1172 H       
  31 H31            1.2608    -1.8011     0.0484 H       
  32 H32            1.2224     3.1066     0.2835 H       
  33 H33            5.7919    -0.5200     0.0863 H       
  34 H34            6.8753     3.9855     0.2961 H       
  35 H35            4.5346    -2.5763     0.5848 H       
  36 H36            2.7607    -2.5857     0.4386 H       
  37 H37            5.0160    -4.2924    -1.0129 H       
  38 H38            3.2637    -4.6041    -0.9693 H       
  39 H39            3.1292    -4.2663    -3.4128 H       
  40 H40            5.6828    -1.7222    -4.0620 H       
  41 H41            3.9305    -2.0339    -4.0185 H       
  42 H42            4.6335    -0.7874    -2.0048 H       
  43 H43            5.8172    -2.0599    -1.6185 H       
  44 H44            7.3563    -4.5146    -4.8473 H       
  45 H45            7.5479    -5.2225    -7.1965 H       
  46 H46            5.5627    -5.2197    -8.6509 H       
  47 H47            3.3806    -4.5099    -7.7616 H       
  48 H48            3.1766    -3.8054    -5.4123 H       
  49 H49            3.6814    -6.5287    -2.4586 H       
  50 H50            4.3303    -6.2829    -4.0977 H       
  51 H51            5.4079    -6.1607    -2.6863 H       
@<TRIPOS>BOND
   1    1    2 1
   2    1    6 2
   3    1   29 1
   4    2    3 2
   5    2   30 1
   6    3    4 1
   7    3   31 1
   8    4    5 1
   9    4    7 2
  10    5    6 1
  11    5   10 am
  12    6   32 1
  13    7    8 1
  14    7   15 1
  15    8    9 2
  16    8   33 1
  17    9   10 1
  18    9   12 1
  19   10   11 2
  20   12   13 2
  21   12   14 1
  22   14   34 1
  23   15   16 1
  24   15   35 1
  25   15   36 1
  26   16   17 1
  27   16   21 1
  28   17   18 1
  29   17   37 1
  30   17   38 1
  31   18   19 1
  32   18   28 1
  33   18   39 1
  34   19   20 1
  35   19   22 1
  36   20   21 1
  37   20   40 1
  38   20   41 1
  39   21   42 1
  40   21   43 1
  41   22   23 ar
  42   22   27 ar
  43   23   24 ar
  44   23   44 1
  45   24   25 ar
  46   24   45 1
  47   25   26 ar
  48   25   46 1
  49   26   27 ar
  50   26   47 1
  51   27   48 1
  52   28   49 1
  53   28   50 1
  54   28   51 1

#	End of record

