#	Name: ASD05313180
#	Creating user name:	WinNT
#	Creation time:	15. 06. 2019 20:58

#	Modifying user name:	WinNT
#	Modification time:	15. 06. 2019 20:58

#	Program:	/corina/corina34_cracker 3.40 0067  02.08.2006

@<TRIPOS>MOLECULE
ASD05313180
  42   45    0    0    0
SMALL
NO_CHARGES


@<TRIPOS>ATOM
   1 C1            -0.0724     0.8194     1.0219 C.2     
   2 C2             0.1133    -0.6173     0.5953 C.3     
   3 N3             0.9303     1.7323     1.0481 N.pl3   
   4 N4             1.4567    -0.7175    -0.0058 N.am    
   5 C5             2.5710    -0.0359     0.6703 C.3     
   6 C6             2.3170     1.4763     0.6624 C.3     
   7 N7            -0.9039     2.6430     1.7047 N.2     
   8 N8            -1.1573     1.4110     1.4237 N.2     
   9 C9             0.3722     2.8924     1.4918 C.2     
  10 C10            1.0654     4.1828     1.6978 C.ar    
  11 C11            0.3494     5.2853     2.1602 C.ar    
  12 C12            1.0095     6.4885     2.3493 C.ar    
  13 C13            2.3651     6.5519     2.0702 C.ar    
  14 C14            3.0201     5.4150     1.6117 C.ar    
  15 N15            2.3664     4.2790     1.4456 N.ar    
  16 O16            4.3475     5.4710     1.3368 O.3     
  17 C17            4.9644     4.2699     0.8688 C.3     
  18 C18            1.6574    -1.4143    -1.1419 C.2     
  19 O19            2.7494    -1.4044    -1.6761 O.2     
  20 C20            0.5506    -2.1899    -1.7379 C.ar    
  21 C21            0.3194    -2.1378    -3.1151 C.ar    
  22 C22           -0.7182    -2.8668    -3.6659 C.ar    
  23 C23           -1.5270    -3.6469    -2.8537 C.ar    
  24 C24           -1.3009    -3.7005    -1.4884 C.ar    
  25 C25           -0.2653    -2.9826    -0.9283 C.ar    
  26 F26           -0.9445    -2.8188    -4.9970 F       
  27 Cl27          -2.8287    -4.5598    -3.5508 Cl      
  28 Cl28           1.3318    -1.1599    -4.1313 Cl      
  29 H29            0.0436    -1.2746     1.4620 H       
  30 H30           -0.6444    -0.8879    -0.1400 H       
  31 H31            2.6424    -0.3878     1.6995 H       
  32 H32            3.5018    -0.2515     0.1456 H       
  33 H33            2.4955     1.8706    -0.3380 H       
  34 H34            2.9877     1.9619     1.3712 H       
  35 H35           -0.7072     5.2029     2.3682 H       
  36 H36            0.4787     7.3586     2.7063 H       
  37 H37            2.9074     7.4757     2.2073 H       
  38 H38            4.8536     3.4880     1.6201 H       
  39 H39            4.4864     3.9533    -0.0582 H       
  40 H40            6.0236     4.4523     0.6876 H       
  41 H41           -1.9349    -4.3095    -0.8611 H       
  42 H42           -0.0885    -3.0297     0.1361 H       
@<TRIPOS>BOND
   1    1    2 1
   2    1    3 1
   3    1    8 2
   4    2    4 1
   5    2   29 1
   6    2   30 1
   7    3    6 1
   8    3    9 1
   9    4    5 1
  10    4   18 am
  11    5    6 1
  12    5   31 1
  13    5   32 1
  14    6   33 1
  15    6   34 1
  16    7    8 1
  17    7    9 2
  18    9   10 1
  19   10   11 ar
  20   10   15 ar
  21   11   12 ar
  22   11   35 1
  23   12   13 ar
  24   12   36 1
  25   13   14 ar
  26   13   37 1
  27   14   15 ar
  28   14   16 1
  29   16   17 1
  30   17   38 1
  31   17   39 1
  32   17   40 1
  33   18   19 2
  34   18   20 1
  35   20   21 ar
  36   20   25 ar
  37   21   22 ar
  38   21   28 1
  39   22   23 ar
  40   22   26 1
  41   23   24 ar
  42   23   27 1
  43   24   25 ar
  44   24   41 1
  45   25   42 1

#	End of record

