#	Name: ASD05213010
#	Creating user name:	WinNT
#	Creation time:	15. 06. 2019 20:57

#	Modifying user name:	WinNT
#	Modification time:	15. 06. 2019 20:57

#	Program:	/corina/corina34_cracker 3.40 0067  02.08.2006

@<TRIPOS>MOLECULE
ASD05213010
  33   35    0    0    0
SMALL
NO_CHARGES


@<TRIPOS>ATOM
   1 C1            -0.0184     1.5028     0.0103 C.2     
   2 C2             0.0021    -0.0041     0.0020 C.3     
   3 C3             0.8131    -0.4890    -1.1719 C.2     
   4 N4             0.9705    -1.8109    -1.3822 N.am    
   5 C5             1.7167    -2.2571    -2.4624 C.2     
   6 S6             2.4855    -1.2416    -3.5950 S.3     
   7 C7             3.1213    -2.6031    -4.5008 C.2     
   8 C8             2.7524    -3.7499    -3.9481 C.2     
   9 C9             1.9424    -3.5754    -2.7625 C.2     
  10 C10            1.4113    -4.6900    -1.9715 C.2     
  11 O11            0.7363    -4.4677    -0.9835 O.2     
  12 N12            1.6707    -5.9606    -2.3385 N.am    
  13 O13            1.3242     0.3103    -1.9274 O.2     
  14 N14            1.0378     2.2626     0.0043 N.2     
  15 C15            0.6617     3.5672     0.0149 C.ar    
  16 C16           -0.7432     3.5879     0.0284 C.ar    
  17 N17           -1.1438     2.2668     0.0193 N.pl3   
  18 C18            1.3669     4.7736     0.0147 C.ar    
  19 C19            0.6881     5.9589     0.0275 C.ar    
  20 C20           -0.6995     5.9799     0.0409 C.ar    
  21 C21           -1.4160     4.8023     0.0414 C.ar    
  22 H22            0.4497    -0.3665     0.9274 H       
  23 H23           -1.0174    -0.3808    -0.0803 H       
  24 H24            0.5617    -2.4502    -0.7779 H       
  25 H25            3.7301    -2.5183    -5.3888 H       
  26 H26            3.0314    -4.7165    -4.3409 H       
  27 H27            2.2088    -6.1377    -3.1260 H       
  28 H28            1.3194    -6.6979    -1.8152 H       
  29 H29           -2.0583     1.9434     0.0248 H       
  30 H30            2.4469     4.7688     0.0047 H       
  31 H31            1.2368     6.8892     0.0276 H       
  32 H32           -1.2215     6.9253     0.0513 H       
  33 H33           -2.4957     4.8241     0.0518 H       
@<TRIPOS>BOND
   1    1    2 1
   2    1   14 2
   3    1   17 1
   4    2    3 1
   5    2   22 1
   6    2   23 1
   7    3    4 am
   8    3   13 2
   9    4    5 1
  10    4   24 1
  11    5    6 1
  12    5    9 2
  13    6    7 1
  14    7    8 2
  15    7   25 1
  16    8    9 1
  17    8   26 1
  18    9   10 1
  19   10   11 2
  20   10   12 am
  21   12   27 1
  22   12   28 1
  23   14   15 1
  24   15   16 ar
  25   15   18 ar
  26   16   17 1
  27   16   21 ar
  28   17   29 1
  29   18   19 ar
  30   18   30 1
  31   19   20 ar
  32   19   31 1
  33   20   21 ar
  34   20   32 1
  35   21   33 1

#	End of record

