#	Name: ASD05060127
#	Creating user name:	WinNT
#	Creation time:	15. 06. 2019 20:56

#	Modifying user name:	WinNT
#	Modification time:	15. 06. 2019 20:56

#	Program:	/corina/corina34_cracker 3.40 0067  02.08.2006

@<TRIPOS>MOLECULE
ASD05060127
  41   42    0    0    0
SMALL
NO_CHARGES


@<TRIPOS>ATOM
   1 C1            -0.0167     1.3788     0.0096 C.ar    
   2 C2             0.0021    -0.0041     0.0020 C.ar    
   3 C3             1.2196    -0.6697    -0.0132 C.ar    
   4 N4             2.3542    -0.0075    -0.0200 N.ar    
   5 C5             2.3874     1.3206    -0.0132 C.ar    
   6 C6             1.1994     2.0590     0.0017 C.ar    
   7 C7             3.6883     2.0227    -0.0213 C.2     
   8 N8             4.8356     1.3156    -0.0357 N.am    
   9 O9             3.7233     3.2377    -0.0151 O.2     
  10 O10            1.2308     3.4151     0.0082 O.3     
  11 C11            6.1248     2.0114    -0.0437 C.3     
  12 C12            7.2416     0.9996    -0.0594 C.ar    
  13 C13            8.7871    -0.4049     1.1214 C.ar    
  14 C14            7.7595     0.5261     1.1315 C.ar    
  15 C15            7.7414     0.5433    -1.2647 C.ar    
  16 C16            9.2957    -0.8626    -0.0883 C.ar    
  17 O17           10.3042    -1.7763    -0.1024 O.3     
  18 C18            8.7686    -0.3880    -1.2835 C.ar    
  19 O19            9.2998    -0.8659     2.2937 O.3     
  20 O20            9.2594    -0.8367    -2.4698 O.3     
  21 C21            8.7285    -0.3517     3.4984 C.3     
  22 C22            9.9300    -3.1554    -0.1116 C.3     
  23 C23            8.6696    -0.3058    -3.6582 C.3     
  24 H24           -0.9520     1.9188     0.0170 H       
  25 H25           -0.9231    -0.5612     0.0082 H       
  26 H26            1.2346    -1.7496    -0.0191 H       
  27 H27            4.8077     0.3460    -0.0406 H       
  28 H28            1.2481     3.8039     0.8934 H       
  29 H29            6.1924     2.6409    -0.9310 H       
  30 H30            6.2087     2.6313     0.8488 H       
  31 H31            7.3635     0.8821     2.0711 H       
  32 H32            7.3310     0.9123    -2.1931 H       
  33 H33            7.6659    -0.5930     3.5284 H       
  34 H34            9.2273    -0.8003     4.3574 H       
  35 H35            8.8563     0.7304     3.5282 H       
  36 H36            9.3448    -3.3790     0.7804 H       
  37 H37            9.3333    -3.3641    -0.9995 H       
  38 H38           10.8267    -3.7751    -0.1225 H       
  39 H39            8.8012     0.7761    -3.6772 H       
  40 H40            9.1519    -0.7459    -4.5311 H       
  41 H41            7.6057    -0.5427    -3.6730 H       
@<TRIPOS>BOND
   1    1    2 ar
   2    1    6 ar
   3    1   24 1
   4    2    3 ar
   5    2   25 1
   6    3    4 ar
   7    3   26 1
   8    4    5 ar
   9    5    6 ar
  10    5    7 1
  11    6   10 1
  12    7    8 am
  13    7    9 2
  14    8   11 1
  15    8   27 1
  16   10   28 1
  17   11   12 1
  18   11   29 1
  19   11   30 1
  20   12   15 ar
  21   12   14 ar
  22   13   16 ar
  23   13   14 ar
  24   13   19 1
  25   14   31 1
  26   15   18 ar
  27   15   32 1
  28   16   18 ar
  29   16   17 1
  30   17   22 1
  31   18   20 1
  32   19   21 1
  33   20   23 1
  34   21   33 1
  35   21   34 1
  36   21   35 1
  37   22   36 1
  38   22   37 1
  39   22   38 1
  40   23   39 1
  41   23   40 1
  42   23   41 1

#	End of record

