#	Name: ASD01208067
#	Creating user name:	WinNT
#	Creation time:	15. 06. 2019 19:09

#	Modifying user name:	WinNT
#	Modification time:	15. 06. 2019 19:09

#	Program:	/corina/corina34_cracker 3.40 0067  02.08.2006

@<TRIPOS>MOLECULE
ASD01208067
  61   65    0    0    0
SMALL
NO_CHARGES


@<TRIPOS>ATOM
   1 C1            -0.0494     1.3993     0.1327 C.ar    
   2 C2             0.1028     0.0239     0.0343 C.ar    
   3 C3            -1.0093    -0.8058     0.0717 C.ar    
   4 C4            -2.2763    -0.2632     0.2075 C.ar    
   5 C5            -2.4338     1.1201     0.3069 C.ar    
   6 C6            -1.3123     1.9501     0.2746 C.ar    
   7 C7            -3.7836     1.7037     0.4520 C.2     
   8 C8            -4.0710     3.0345     0.5580 C.2     
   9 N9            -4.9589     1.0020     0.4970 N.pl3   
  10 C10           -5.9943     1.8944     0.6382 C.2     
  11 C11           -5.4569     3.1629     0.6777 C.2     
  12 O12            1.0429     2.2072     0.0956 O.3     
  13 C13            0.8072     3.6165     0.0810 C.3     
  14 C14            1.9982     4.3261    -0.5663 C.3     
  15 O15            3.1596     4.1453     0.2465 O.3     
  16 C16            0.6323     4.1192     1.5155 C.3     
  17 O17           -0.8548    -2.1523    -0.0256 O.3     
  18 C18           -1.3392    -2.7711    -1.1325 C.ar    
  19 C19           -1.3166    -4.1606    -1.2173 C.ar    
  20 C20           -1.8615    -2.0166    -2.1754 C.ar    
  21 C21           -2.3546    -2.6404    -3.3004 C.ar    
  22 C22           -2.3290    -4.0340    -3.3930 C.ar    
  23 C23           -1.8079    -4.7916    -2.3402 C.ar    
  24 C24           -7.4220     1.5563     0.7267 C.2     
  25 N25           -7.9427     0.3487     0.6861 N.2     
  26 N26           -9.2219     0.4353     0.7924 N.2     
  27 C27           -9.5675     1.6873     0.9040 C.2     
  28 O28           -8.4436     2.4259     0.8708 O.3     
  29 C29           -2.8570    -4.7053    -4.5969 C.2     
  30 N30           -2.9893    -6.0464    -4.6173 N.am    
  31 C31          -10.9725     2.2123     1.0498 C.3     
  32 O32           -3.1726    -4.0483    -5.5701 O.2     
  33 C33           -3.5074    -7.0450    -5.5645 C.3     
  34 C34           -3.8170    -7.9462    -4.3611 C.3     
  35 C35           -2.6731    -7.1556    -3.7050 C.3     
  36 F36           -0.8125    -4.8910    -0.1987 F       
  37 H37            1.0893    -0.4024    -0.0721 H       
  38 H38           -3.1412    -0.9094     0.2362 H       
  39 H39           -1.4297     3.0210     0.3515 H       
  40 H40           -3.3550     3.8430     0.5507 H       
  41 H41           -5.0459     0.0376     0.4386 H       
  42 H42           -6.0065     4.0868     0.7820 H       
  43 H43           -0.0963     3.8280    -0.4908 H       
  44 H44            2.1780     3.9053    -1.5556 H       
  45 H45            1.7810     5.3903    -0.6581 H       
  46 H46            3.9548     4.5696    -0.1039 H       
  47 H47            0.4525     5.1942     1.5044 H       
  48 H48           -0.2162     3.6136     1.9767 H       
  49 H49            1.5358     3.9077     2.0873 H       
  50 H50           -1.8813    -0.9391    -2.1041 H       
  51 H51           -2.7610    -2.0524    -4.1101 H       
  52 H52           -1.7861    -5.8692    -2.4083 H       
  53 H53          -11.2308     2.2702     2.1072 H       
  54 H54          -11.0373     3.2052     0.6050 H       
  55 H55          -11.6656     1.5410     0.5428 H       
  56 H56           -4.3976    -6.7147    -6.0998 H       
  57 H57           -2.7435    -7.4524    -6.2268 H       
  58 H58           -4.7965    -7.7750    -3.9148 H       
  59 H59           -3.5932    -9.0007    -4.5232 H       
  60 H60           -1.6896    -7.5942    -3.8739 H       
  61 H61           -2.8550    -6.9183    -2.6568 H       
@<TRIPOS>BOND
   1    1    2 ar
   2    1   12 1
   3    1    6 ar
   4    2    3 ar
   5    2   37 1
   6    3    4 ar
   7    3   17 1
   8    4    5 ar
   9    4   38 1
  10    5    6 ar
  11    5    7 1
  12    6   39 1
  13    7    8 2
  14    7    9 1
  15    8   11 1
  16    8   40 1
  17    9   10 1
  18    9   41 1
  19   10   11 2
  20   10   24 1
  21   11   42 1
  22   12   13 1
  23   13   14 1
  24   13   16 1
  25   13   43 1
  26   14   15 1
  27   14   44 1
  28   14   45 1
  29   15   46 1
  30   16   47 1
  31   16   48 1
  32   16   49 1
  33   17   18 1
  34   18   19 ar
  35   18   20 ar
  36   19   36 1
  37   19   23 ar
  38   20   21 ar
  39   20   50 1
  40   21   22 ar
  41   21   51 1
  42   22   23 ar
  43   22   29 1
  44   23   52 1
  45   24   25 2
  46   24   28 1
  47   25   26 1
  48   26   27 2
  49   27   28 1
  50   27   31 1
  51   29   30 am
  52   29   32 2
  53   30   33 1
  54   30   35 1
  55   31   53 1
  56   31   54 1
  57   31   55 1
  58   33   34 1
  59   33   56 1
  60   33   57 1
  61   34   35 1
  62   34   58 1
  63   34   59 1
  64   35   60 1
  65   35   61 1

#	End of record

