#	Name: ASD04591129
#	Creating user name:	WinNT
#	Creation time:	15. 06. 2019 20:52

#	Modifying user name:	WinNT
#	Modification time:	15. 06. 2019 20:52

#	Program:	/corina/corina34_cracker 3.40 0067  02.08.2006

@<TRIPOS>MOLECULE
ASD04591129
  60   65    0    0    0
SMALL
NO_CHARGES


@<TRIPOS>ATOM
   1 N1            -0.0171     1.3232    -0.0119 N.ar    
   2 C2             0.0017    -0.0035    -0.0051 C.ar    
   3 N3             1.1298    -0.6949    -0.0118 N.ar    
   4 C4             2.3050    -0.0728    -0.0262 C.ar    
   5 C5             2.3189     1.3366    -0.0341 C.ar    
   6 C6             1.1072     2.0202    -0.0261 C.ar    
   7 N7             3.6031    -0.5195    -0.0358 N.pl3   
   8 C8             4.4823     0.5495    -0.0498 C.ar    
   9 C9             3.7312     1.7385    -0.0494 C.ar    
  10 C10            5.8680     0.6418    -0.0632 C.ar    
  11 N11            6.4613     1.8181    -0.0753 N.ar    
  12 C12            5.7850     2.9533    -0.0752 C.ar    
  13 C13            4.4064     2.9585    -0.0621 C.ar    
  14 N14           -1.2019    -0.6887     0.0098 N.pl3   
  15 C15           -2.4019     0.0120     0.1303 C.ar    
  16 C16            4.0018    -1.9292    -0.0312 C.3     
  17 N17           -2.3783     1.3196     0.3309 N.ar    
  18 C18           -3.4885     2.0229     0.4509 C.ar    
  19 C19           -4.7291     1.4087     0.3703 C.ar    
  20 C20           -4.7935     0.0321     0.1596 C.ar    
  21 C21           -3.6094    -0.6709     0.0326 C.ar    
  22 N22           -5.9023     2.1615     0.4995 N.3     
  23 C23           -6.7490     1.6360     1.5796 C.3     
  24 C24           -7.9798     2.5313     1.7408 C.3     
  25 N25           -8.7187     2.5770     0.4713 N.3     
  26 C26           -7.8720     3.1024    -0.6089 C.3     
  27 C27           -6.6412     2.2071    -0.7700 C.3     
  28 C28            3.4004    -2.6445     1.1962 C.3     
  29 C29            3.4384    -2.6403    -1.2741 C.3     
  30 C30            2.5144    -3.7629    -0.7586 C.3     
  31 C31            2.1010    -3.2939     0.6586 C.3     
  32 C32           -8.6655     3.1195    -1.9170 C.3     
  33 H33            1.0848     3.1000    -0.0322 H       
  34 H34            6.4645    -0.2585    -0.0634 H       
  35 H35            6.3203     3.8912    -0.0851 H       
  36 H36            3.8597     3.8899    -0.0625 H       
  37 H37           -1.2103    -1.6559    -0.0635 H       
  38 H38            5.0887    -2.0095    -0.0157 H       
  39 H39           -3.4301     3.0889     0.6140 H       
  40 H40           -5.7459    -0.4729     0.0926 H       
  41 H41           -3.6221    -1.7382    -0.1317 H       
  42 H42           -7.0661     0.6228     1.3330 H       
  43 H43           -6.1837     1.6238     2.5115 H       
  44 H44           -8.6237     2.1271     2.5219 H       
  45 H45           -7.6640     3.5381     2.0141 H       
  46 H46           -9.0854     1.6676     0.2334 H       
  47 H47           -7.5550     4.1157    -0.3623 H       
  48 H48           -5.9973     2.6113    -1.5512 H       
  49 H49           -6.9571     1.2004    -1.0434 H       
  50 H50            4.0843    -3.4087     1.5654 H       
  51 H51            3.1704    -1.9252     1.9822 H       
  52 H52            2.8684    -1.9365    -1.8806 H       
  53 H53            4.2519    -3.0664    -1.8613 H       
  54 H54            1.6378    -3.8597    -1.3991 H       
  55 H55            3.0552    -4.7077    -0.7051 H       
  56 H56            1.8091    -4.1429     1.2766 H       
  57 H57            1.2968    -2.5602     0.6034 H       
  58 H58           -9.5431     3.7556    -1.8013 H       
  59 H59           -8.0373     3.5093    -2.7179 H       
  60 H60           -8.9815     2.1059    -2.1636 H       
@<TRIPOS>BOND
   1    1    2 ar
   2    1    6 ar
   3    2    3 ar
   4    2   14 1
   5    3    4 ar
   6    4    5 ar
   7    4    7 1
   8    5    6 ar
   9    5    9 1
  10    6   33 1
  11    7    8 1
  12    7   16 1
  13    8    9 ar
  14    8   10 ar
  15    9   13 ar
  16   10   11 ar
  17   10   34 1
  18   11   12 ar
  19   12   13 ar
  20   12   35 1
  21   13   36 1
  22   14   15 1
  23   14   37 1
  24   15   17 ar
  25   15   21 ar
  26   16   29 1
  27   16   28 1
  28   16   38 1
  29   17   18 ar
  30   18   19 ar
  31   18   39 1
  32   19   20 ar
  33   19   22 1
  34   20   21 ar
  35   20   40 1
  36   21   41 1
  37   22   23 1
  38   22   27 1
  39   23   24 1
  40   23   42 1
  41   23   43 1
  42   24   25 1
  43   24   44 1
  44   24   45 1
  45   25   26 1
  46   25   46 1
  47   26   27 1
  48   26   32 1
  49   26   47 1
  50   27   48 1
  51   27   49 1
  52   28   31 1
  53   28   50 1
  54   28   51 1
  55   29   30 1
  56   29   52 1
  57   29   53 1
  58   30   31 1
  59   30   54 1
  60   30   55 1
  61   31   56 1
  62   31   57 1
  63   32   58 1
  64   32   59 1
  65   32   60 1

#	End of record

