#	Name: ASD01903311
#	Creating user name:	WinNT
#	Creation time:	15. 06. 2019 19:54

#	Modifying user name:	WinNT
#	Modification time:	15. 06. 2019 19:54

#	Program:	/corina/corina34_cracker 3.40 0067  02.08.2006

@<TRIPOS>MOLECULE
ASD01903311
  36   39    0    0    0
SMALL
NO_CHARGES


@<TRIPOS>ATOM
   1 N1            -0.0111     0.9658     0.0074 N.pl3   
   2 H2             0.0455    -0.0025     0.0035 H       
   3 C3             1.1475     1.7284    -0.0089 C.2     
   4 C4            -1.2546     1.5900     0.0233 C.ar    
   5 N5            -1.3258     2.9082     0.1243 N.ar    
   6 C6            -2.4845     3.5392     0.1427 C.ar    
   7 C7            -3.6723     2.8410     0.0569 C.ar    
   8 C8            -3.6414     1.4567    -0.0503 C.ar    
   9 C9            -2.4118     0.8237    -0.0727 C.ar    
  10 S10            2.7871     1.0918     0.0955 S.3     
  11 C11            3.4262     2.7261     0.0217 C.2     
  12 C12            2.3893     3.5845    -0.1246 C.2     
  13 N13            1.1930     3.0226    -0.1090 N.2     
  14 C14           -2.5116     5.0414     0.2592 C.3     
  15 C15            4.8496     3.1715     0.1511 C.3     
  16 C16            5.5087     3.5268    -1.1914 C.3     
  17 C17            4.4968     4.3301    -2.0302 C.3     
  18 C18            3.7483     5.3468    -1.2246 C.2     
  19 C19            2.7281     5.0234    -0.3786 C.2     
  20 N20            3.8931     6.6814    -1.1733 N.pl3   
  21 N21            2.8882     7.1963    -0.3379 N.2     
  22 C22            2.1822     6.1939     0.1343 C.2     
  23 H23           -4.6160     3.3659     0.0734 H       
  24 H24           -4.5567     0.8876    -0.1184 H       
  25 H25           -2.3511    -0.2514    -0.1555 H       
  26 H26           -2.4908     5.4836    -0.7369 H       
  27 H27           -3.4213     5.3495     0.7745 H       
  28 H28           -1.6423     5.3778     0.8242 H       
  29 H29            4.8832     4.0477     0.7986 H       
  30 H30            5.4236     2.3726     0.6205 H       
  31 H31            6.3998     4.1292    -1.0150 H       
  32 H32            5.7809     2.6133    -1.7200 H       
  33 H33            5.0316     4.8409    -2.8309 H       
  34 H34            3.7813     3.6381    -2.4745 H       
  35 H35            4.5731     7.1989    -1.6324 H       
  36 H36            1.3337     6.2664     0.7984 H       
@<TRIPOS>BOND
   1    1    2 1
   2    1    3 1
   3    1    4 1
   4    3   10 1
   5    3   13 2
   6    4    5 ar
   7    4    9 ar
   8    5    6 ar
   9    6    7 ar
  10    6   14 1
  11    7    8 ar
  12    7   23 1
  13    8    9 ar
  14    8   24 1
  15    9   25 1
  16   10   11 1
  17   11   12 2
  18   11   15 1
  19   12   13 1
  20   12   19 1
  21   14   26 1
  22   14   27 1
  23   14   28 1
  24   15   16 1
  25   15   29 1
  26   15   30 1
  27   16   17 1
  28   16   31 1
  29   16   32 1
  30   17   18 1
  31   17   33 1
  32   17   34 1
  33   18   19 2
  34   18   20 1
  35   19   22 1
  36   20   21 1
  37   20   35 1
  38   21   22 2
  39   22   36 1

#	End of record

