#	Name: ASD05303045
#	Creating user name:	WinNT
#	Creation time:	15. 06. 2019 20:58

#	Modifying user name:	WinNT
#	Modification time:	15. 06. 2019 20:58

#	Program:	/corina/corina34_cracker 3.40 0067  02.08.2006

@<TRIPOS>MOLECULE
ASD05303045
  39   42    0    0    0
SMALL
NO_CHARGES


@<TRIPOS>ATOM
   1 C1            -0.0389     1.3117     0.3161 C.ar    
   2 C2             0.0068    -0.0753     0.3065 C.ar    
   3 C3             1.2082    -0.7394     0.1886 C.ar    
   4 C4             2.3925    -0.0147     0.0776 C.ar    
   5 C5             2.3384     1.3899     0.0918 C.ar    
   6 C6             1.1112     2.0434     0.2101 C.ar    
   7 N7             3.6013    -0.6675    -0.0480 N.pl3   
   8 C8             4.8017    -0.0124     0.1330 C.ar    
   9 C9             4.8521     1.3924     0.1516 C.ar    
  10 C10            3.5978     2.1511    -0.0159 C.2     
  11 C11            5.9809    -0.7348     0.2995 C.ar    
  12 C12            7.1739    -0.0684     0.4757 C.ar    
  13 C13            7.2162     1.3187     0.4883 C.ar    
  14 C14            6.0710     2.0482     0.3289 C.ar    
  15 O15            3.6018     3.3493    -0.2324 O.2     
  16 C16            3.6103    -2.0939    -0.3819 C.3     
  17 C17            3.6442    -2.2590    -1.8795 C.ar    
  18 C18            4.8566    -2.3335    -2.5393 C.ar    
  19 C19            4.8878    -2.4849    -3.9130 C.ar    
  20 C20            3.7065    -2.5623    -4.6268 C.ar    
  21 C21            2.4941    -2.4888    -3.9668 C.ar    
  22 C22            2.4630    -2.3417    -2.5926 C.ar    
  23 N23            3.7398    -2.7235    -6.0978 N.pl3   
  24 O24            4.8080    -2.7879    -6.6793 O.2     
  25 O25            2.6989    -2.7917    -6.7267 O.2     
  26 H26           -0.9896     1.8165     0.4034 H       
  27 H27           -0.9096    -0.6404     0.3927 H       
  28 H28            1.2316    -1.8191     0.1827 H       
  29 H29            1.0700     3.1226     0.2179 H       
  30 H30            5.9602    -1.8145     0.2908 H       
  31 H31            8.0862    -0.6317     0.6051 H       
  32 H32            8.1601     1.8253     0.6254 H       
  33 H33            6.1096     3.1274     0.3394 H       
  34 H34            4.4912    -2.5639     0.0555 H       
  35 H35            2.7117    -2.5658     0.0154 H       
  36 H36            5.7796    -2.2730    -1.9817 H       
  37 H37            5.8350    -2.5423    -4.4286 H       
  38 H38            1.5711    -2.5489    -4.5245 H       
  39 H39            1.5157    -2.2843    -2.0770 H       
@<TRIPOS>BOND
   1    1    2 ar
   2    1    6 ar
   3    1   26 1
   4    2    3 ar
   5    2   27 1
   6    3    4 ar
   7    3   28 1
   8    4    5 ar
   9    4    7 1
  10    5    6 ar
  11    5   10 1
  12    6   29 1
  13    7    8 1
  14    7   16 1
  15    8    9 ar
  16    8   11 ar
  17    9   10 1
  18    9   14 ar
  19   10   15 2
  20   11   12 ar
  21   11   30 1
  22   12   13 ar
  23   12   31 1
  24   13   14 ar
  25   13   32 1
  26   14   33 1
  27   16   17 1
  28   16   34 1
  29   16   35 1
  30   17   18 ar
  31   17   22 ar
  32   18   19 ar
  33   18   36 1
  34   19   20 ar
  35   19   37 1
  36   20   21 ar
  37   20   23 1
  38   21   22 ar
  39   21   38 1
  40   22   39 1
  41   23   24 2
  42   23   25 2

#	End of record

