#	Name: ASD00170696
#	Creating user name:	WinNT
#	Creation time:	15. 06. 2019 18:32

#	Modifying user name:	WinNT
#	Modification time:	15. 06. 2019 18:32

#	Program:	/corina/corina34_cracker 3.40 0067  02.08.2006

@<TRIPOS>MOLECULE
ASD00170696
  41   42    0    0    0
SMALL
NO_CHARGES


@<TRIPOS>ATOM
   1 C1            -4.7460    -3.7346     3.0987 C.3     
   2 C2            -3.4869    -3.8702     2.2817 C.ar    
   3 C3            -2.3062    -3.3115     2.7382 C.ar    
   4 C4            -1.1501    -3.4320     1.9952 C.ar    
   5 C5            -1.1733    -4.1192     0.7806 C.ar    
   6 C6            -2.3676    -4.6803     0.3259 C.ar    
   7 C7            -3.5154    -4.5575     1.0812 C.ar    
   8 C8             0.0626    -4.2518    -0.0215 C.2     
   9 O9             1.0793    -3.6796     0.3274 O.2     
  10 C10            0.0633    -5.0700    -1.2335 C.2     
  11 C11           -0.1048    -4.5581    -2.4992 C.2     
  12 N12           -0.2944    -3.2216    -2.7870 N.pl3   
  13 S13           -0.0469    -5.8019    -3.6630 S.3     
  14 C14            0.2072    -7.0384    -2.4447 C.2     
  15 C15            0.2474    -6.5066    -1.2322 C.2     
  16 C16            0.4535    -7.3156     0.0225 C.3     
  17 C17            1.9501    -7.4172     0.3237 C.3     
  18 C18            2.5269    -6.0139     0.5212 C.3     
  19 C19            2.1593    -8.2385     1.5975 C.3     
  20 C20            2.6606    -8.1006    -0.8463 C.3     
  21 Br21           0.4054    -8.8825    -2.8137 Br      
  22 H22           -5.2738    -2.8272     2.8050 H       
  23 H23           -5.3864    -4.5995     2.9255 H       
  24 H24           -4.4887    -3.6791     4.1564 H       
  25 H25           -2.2898    -2.7797     3.6781 H       
  26 H26           -0.2292    -2.9952     2.3524 H       
  27 H27           -2.3921    -5.2133    -0.6131 H       
  28 H28           -4.4402    -4.9912     0.7305 H       
  29 H29           -0.3893    -2.5791    -2.0665 H       
  30 H30           -0.3327    -2.9248    -3.7097 H       
  31 H31           -0.0527    -6.8287     0.8560 H       
  32 H32            0.0425    -8.3153    -0.1183 H       
  33 H33            2.0207    -5.5270     1.3548 H       
  34 H34            3.5931    -6.0863     0.7359 H       
  35 H35            2.3779    -5.4288    -0.3862 H       
  36 H36            1.7483    -9.2382     1.4568 H       
  37 H37            3.2255    -8.3109     1.8121 H       
  38 H38            1.6531    -7.7516     2.4310 H       
  39 H39            2.5115    -7.5155    -1.7538 H       
  40 H40            3.7268    -8.1730    -0.6317 H       
  41 H41            2.2496    -9.1003    -0.9870 H       
@<TRIPOS>BOND
   1    1    2 1
   2    1   22 1
   3    1   23 1
   4    1   24 1
   5    2    3 ar
   6    2    7 ar
   7    3    4 ar
   8    3   25 1
   9    4    5 ar
  10    4   26 1
  11    5    6 ar
  12    5    8 1
  13    6    7 ar
  14    6   27 1
  15    7   28 1
  16    8    9 2
  17    8   10 1
  18   10   11 2
  19   10   15 1
  20   11   12 1
  21   11   13 1
  22   12   29 1
  23   12   30 1
  24   13   14 1
  25   14   15 2
  26   14   21 1
  27   15   16 1
  28   16   17 1
  29   16   31 1
  30   16   32 1
  31   17   18 1
  32   17   19 1
  33   17   20 1
  34   18   33 1
  35   18   34 1
  36   18   35 1
  37   19   36 1
  38   19   37 1
  39   19   38 1
  40   20   39 1
  41   20   40 1
  42   20   41 1

#	End of record

