#	Name: ASD05313151
#	Creating user name:	WinNT
#	Creation time:	15. 06. 2019 20:58

#	Modifying user name:	WinNT
#	Modification time:	15. 06. 2019 20:58

#	Program:	/corina/corina34_cracker 3.40 0067  02.08.2006

@<TRIPOS>MOLECULE
ASD05313151
  40   43    0    0    0
SMALL
NO_CHARGES


@<TRIPOS>ATOM
   1 C1            -0.0625     0.8474     0.9879 C.2     
   2 C2             0.1147    -0.5949     0.5770 C.3     
   3 N3             0.9470     1.7529     1.0108 N.pl3   
   4 N4             1.4608    -0.7114    -0.0152 N.am    
   5 C5             2.5763    -0.0314     0.6605 C.3     
   6 C6             2.3339     1.4825     0.6362 C.3     
   7 N7            -0.8841     2.6841     1.6474 N.2     
   8 N8            -1.1452     1.4512     1.3774 N.2     
   9 C9             0.3951     2.9217     1.4394 C.2     
  10 C10            1.0969     4.2086     1.6368 C.ar    
  11 C11            0.3936     5.3290     2.0842 C.ar    
  12 N12            2.4019     4.3017     1.3940 N.ar    
  13 N13            1.0252     6.4743     2.2589 N.ar    
  14 C14            2.3212     6.5617     2.0110 C.ar    
  15 C15            3.0237     5.4523     1.5721 C.ar    
  16 C16            1.6628    -1.4210    -1.1430 C.2     
  17 O17            2.7581    -1.4257    -1.6703 O.2     
  18 C18            0.5531    -2.1933    -1.7385 C.ar    
  19 C19            0.3198    -2.1375    -3.1144 C.ar    
  20 C20           -0.7177    -2.8605    -3.6650 C.ar    
  21 C21           -1.5289    -3.6417    -2.8539 C.ar    
  22 C22           -1.3009    -3.6999    -1.4880 C.ar    
  23 C23           -0.2626    -2.9858    -0.9286 C.ar    
  24 C24            1.1996    -1.2887    -3.9956 C.3     
  25 F25           -2.5445    -4.3475    -3.3975 F       
  26 Cl26          -1.0097    -2.7929    -5.3749 Cl      
  27 H27            0.0350    -1.2429     1.4498 H       
  28 H28           -0.6407    -0.8672    -0.1600 H       
  29 H29            2.6390    -0.3734     1.6936 H       
  30 H30            3.5084    -0.2592     0.1435 H       
  31 H31            2.5214     1.8651    -0.3671 H       
  32 H32            3.0041     1.9702     1.3440 H       
  33 H33           -0.6649     5.2584     2.2865 H       
  34 H34            2.8343     7.5010     2.1549 H       
  35 H35            4.0829     5.5284     1.3755 H       
  36 H36           -1.9353    -4.3090    -0.8612 H       
  37 H37           -0.0834    -3.0357     0.1353 H       
  38 H38            2.0897    -1.8536    -4.2724 H       
  39 H39            0.6516    -1.0101    -4.8957 H       
  40 H40            1.4938    -0.3885    -3.4561 H       
@<TRIPOS>BOND
   1    1    2 1
   2    1    3 1
   3    1    8 2
   4    2    4 1
   5    2   27 1
   6    2   28 1
   7    3    6 1
   8    3    9 1
   9    4    5 1
  10    4   16 am
  11    5    6 1
  12    5   29 1
  13    5   30 1
  14    6   31 1
  15    6   32 1
  16    7    8 1
  17    7    9 2
  18    9   10 1
  19   10   11 ar
  20   10   12 ar
  21   11   13 ar
  22   11   33 1
  23   12   15 ar
  24   13   14 ar
  25   14   15 ar
  26   14   34 1
  27   15   35 1
  28   16   17 2
  29   16   18 1
  30   18   19 ar
  31   18   23 ar
  32   19   20 ar
  33   19   24 1
  34   20   21 ar
  35   20   26 1
  36   21   22 ar
  37   21   25 1
  38   22   23 ar
  39   22   36 1
  40   23   37 1
  41   24   38 1
  42   24   39 1
  43   24   40 1

#	End of record

