#	Name: ASD04880372
#	Creating user name:	WinNT
#	Creation time:	15. 06. 2019 20:53

#	Modifying user name:	WinNT
#	Modification time:	15. 06. 2019 20:53

#	Program:	/corina/corina34_cracker 3.40 0067  02.08.2006

@<TRIPOS>MOLECULE
ASD04880372
  40   43    0    0    0
SMALL
NO_CHARGES


@<TRIPOS>ATOM
   1 C1            -0.0053     1.3656     0.3047 C.ar    
   2 C2             0.0100    -0.0228     0.2706 C.ar    
   3 C3            -1.1740    -0.7261     0.2222 C.ar    
   4 C4            -2.3915    -0.0402     0.2080 C.ar    
   5 C5            -2.4020     1.3568     0.2429 C.ar    
   6 C6            -1.2131     2.0515     0.2960 C.ar    
   7 C7            -3.6608    -0.7880     0.1559 C.2     
   8 N8            -3.7666    -2.0717     0.1208 N.2     
   9 N9            -5.0804    -2.5335     0.0747 N.am    
  10 C10           -5.9914    -1.3778     0.0798 C.3     
  11 C11           -5.0393    -0.1670     0.1418 C.3     
  12 C12           -5.4556    -3.8272     0.0319 C.2     
  13 O13           -6.6340    -4.1212     0.0978 O.2     
  14 C14           -4.4367    -4.8871    -0.0949 C.ar    
  15 C15           -4.8074    -6.2306     0.0051 C.ar    
  16 C16           -3.0996    -4.5499    -0.3211 C.ar    
  17 C17           -2.1490    -5.5449    -0.4393 C.ar    
  18 C18           -2.5249    -6.8846    -0.3328 C.ar    
  19 C19           -3.8547    -7.2186    -0.1132 C.ar    
  20 O20            1.1645     2.0548     0.3523 O.3     
  21 C21            1.0765     3.4807     0.3854 C.3     
  22 O22           -0.8024    -5.4866    -0.6572 O.3     
  23 C23           -0.2957    -6.7792    -0.2758 C.3     
  24 O24           -1.4143    -7.6611    -0.4848 O.3     
  25 F25            0.3600     3.8775     1.5196 F       
  26 F26            2.3638     4.0264     0.4325 F       
  27 F27            0.4195     3.9342    -0.7635 F       
  28 H28            0.9514    -0.5521     0.2816 H       
  29 H29           -1.1611    -1.8057     0.1950 H       
  30 H30           -3.3405     1.8910     0.2321 H       
  31 H31           -1.2202     3.1311     0.3234 H       
  32 H32           -6.5877    -1.3554    -0.8324 H       
  33 H33           -6.6348    -1.4005     0.9594 H       
  34 H34           -5.2140     0.4106     1.0495 H       
  35 H35           -5.1608     0.4605    -0.7411 H       
  36 H36           -5.8407    -6.4944     0.1755 H       
  37 H37           -2.8100    -3.5127    -0.4038 H       
  38 H38           -4.1425    -8.2563    -0.0312 H       
  39 H39            0.5416    -7.0653    -0.9123 H       
  40 H40            0.0016    -6.7798     0.7729 H       
@<TRIPOS>BOND
   1    1    2 ar
   2    1   20 1
   3    1    6 ar
   4    2    3 ar
   5    2   28 1
   6    3    4 ar
   7    3   29 1
   8    4    5 ar
   9    4    7 1
  10    5    6 ar
  11    5   30 1
  12    6   31 1
  13    7    8 2
  14    7   11 1
  15    8    9 1
  16    9   10 1
  17    9   12 am
  18   10   11 1
  19   10   32 1
  20   10   33 1
  21   11   34 1
  22   11   35 1
  23   12   13 2
  24   12   14 1
  25   14   15 ar
  26   14   16 ar
  27   15   19 ar
  28   15   36 1
  29   16   17 ar
  30   16   37 1
  31   17   18 ar
  32   17   22 1
  33   18   19 ar
  34   18   24 1
  35   19   38 1
  36   20   21 1
  37   21   25 1
  38   21   26 1
  39   21   27 1
  40   22   23 1
  41   23   24 1
  42   23   39 1
  43   23   40 1

#	End of record

