#	Name: ASD03092009
#	Creating user name:	WinNT
#	Creation time:	15. 06. 2019 20:31

#	Modifying user name:	WinNT
#	Modification time:	15. 06. 2019 20:31

#	Program:	/corina/corina34_cracker 3.40 0067  02.08.2006

@<TRIPOS>MOLECULE
ASD03092009
  52   54    0    0    0
SMALL
NO_CHARGES


@<TRIPOS>ATOM
   1 C1             0.4155     0.5162    -0.4224 C.ar    
   2 N2             0.3834    -0.5622    -1.1818 N.ar    
   3 C3             1.3677    -0.8678    -2.0060 C.ar    
   4 C4             2.4825    -0.0625    -2.1070 C.ar    
   5 C5             2.5591     1.0922    -1.3198 C.ar    
   6 C6             1.4923     1.3775    -0.4604 C.ar    
   7 C7             3.7355     1.9861    -1.3939 C.2     
   8 C8             4.9332     1.7998    -0.7643 C.2     
   9 C9             5.7656     2.8745    -1.1010 C.2     
  10 N10            5.1030     3.6786    -1.9001 N.2     
  11 N11            3.8252     3.1441    -2.1079 N.pl3   
  12 C12            2.7692     3.7304    -2.9369 C.3     
  13 N13            7.0814     3.0605    -0.6597 N.pl3   
  14 C14            7.8404     4.1236    -1.1546 C.ar    
  15 C15            9.2159     3.9899    -1.2966 C.ar    
  16 C16            9.9647     5.0423    -1.7862 C.ar    
  17 C17            9.3475     6.2290    -2.1351 C.ar    
  18 C18            7.9762     6.3671    -1.9948 C.ar    
  19 C19            7.2206     5.3146    -1.5110 C.ar    
  20 C20           11.4568     4.8968    -1.9396 C.3     
  21 C21            2.9285     3.2502    -4.3808 C.3     
  22 C22            1.8422     3.8533    -5.2336 C.2     
  23 N23            1.7829     3.5693    -6.5497 N.am    
  24 F24            7.3760     7.5282    -2.3363 F       
  25 F25           11.7484     4.4017    -3.2151 F       
  26 F26           12.0666     6.1449    -1.7732 F       
  27 F27           11.9406     4.0089    -0.9728 F       
  28 O28            1.0214     4.5943    -4.7355 O.2     
  29 C29            0.7269     4.1556    -7.3787 C.3     
  30 C30            2.7744     2.6742    -7.1513 C.3     
  31 C31            3.6018    -0.4207    -3.0505 C.3     
  32 H32           -0.4146     0.7299     0.2346 H       
  33 H33            1.2993    -1.7610    -2.6093 H       
  34 H34            1.5117     2.2586     0.1638 H       
  35 H35            5.1920     0.9716    -0.1212 H       
  36 H36            1.7953     3.4218    -2.5567 H       
  37 H37            2.8437     4.8174    -2.9052 H       
  38 H38            7.4658     2.4510    -0.0102 H       
  39 H39            9.6996     3.0635    -1.0241 H       
  40 H40            9.9356     7.0502    -2.5176 H       
  41 H41            6.1516     5.4218    -1.4014 H       
  42 H42            3.9024     3.5588    -4.7609 H       
  43 H43            2.8540     2.1632    -4.4125 H       
  44 H44            1.0702     5.1067    -7.7855 H       
  45 H45            0.4875     3.4759    -8.1965 H       
  46 H46           -0.1628     4.3203    -6.7709 H       
  47 H47            3.4741     2.3398    -6.3854 H       
  48 H48            2.2692     1.8106    -7.5839 H       
  49 H49            3.3176     3.2062    -7.9324 H       
  50 H50            3.4671     0.1110    -3.9925 H       
  51 H51            4.5560    -0.1371    -2.6065 H       
  52 H52            3.5918    -1.4949    -3.2350 H       
@<TRIPOS>BOND
   1    1    2 ar
   2    1    6 ar
   3    1   32 1
   4    2    3 ar
   5    3    4 ar
   6    3   33 1
   7    4    5 ar
   8    4   31 1
   9    5    6 ar
  10    5    7 1
  11    6   34 1
  12    7    8 2
  13    7   11 1
  14    8    9 1
  15    8   35 1
  16    9   10 2
  17    9   13 1
  18   10   11 1
  19   11   12 1
  20   12   21 1
  21   12   36 1
  22   12   37 1
  23   13   14 1
  24   13   38 1
  25   14   15 ar
  26   14   19 ar
  27   15   16 ar
  28   15   39 1
  29   16   17 ar
  30   16   20 1
  31   17   18 ar
  32   17   40 1
  33   18   19 ar
  34   18   24 1
  35   19   41 1
  36   20   25 1
  37   20   26 1
  38   20   27 1
  39   21   22 1
  40   21   42 1
  41   21   43 1
  42   22   23 am
  43   22   28 2
  44   23   29 1
  45   23   30 1
  46   29   44 1
  47   29   45 1
  48   29   46 1
  49   30   47 1
  50   30   48 1
  51   30   49 1
  52   31   50 1
  53   31   51 1
  54   31   52 1

#	End of record

