#	Name: ASD03320115
#	Creating user name:	WinNT
#	Creation time:	15. 06. 2019 20:36

#	Modifying user name:	WinNT
#	Modification time:	15. 06. 2019 20:36

#	Program:	/corina/corina34_cracker 3.40 0067  02.08.2006

@<TRIPOS>MOLECULE
ASD03320115
  29   30    0    0    0
SMALL
NO_CHARGES


@<TRIPOS>ATOM
   1 C1            -0.1750     1.4740    -0.5687 C.2     
   2 C2            -0.1528    -0.0033    -0.5723 C.ar    
   3 C3             0.8981    -0.6981    -1.1852 C.ar    
   4 C4             0.8721    -2.0809    -1.1611 C.ar    
   5 C5            -0.1832    -2.7285    -0.5371 C.ar    
   6 N6            -1.1597    -2.0461     0.0322 N.ar    
   7 C7            -1.1752    -0.7293     0.0397 C.ar    
   8 O8             0.7236     2.0968    -1.1006 O.2     
   9 N9            -1.1942     2.1313     0.0193 N.am    
  10 C10           -1.1618     3.5280     0.1194 C.ar    
  11 C11           -2.3392     4.2587     0.0197 C.ar    
  12 C12           -2.3073     5.6364     0.1189 C.ar    
  13 C13           -1.0955     6.2908     0.3188 C.ar    
  14 C14            0.0800     5.5588     0.4183 C.ar    
  15 C15            0.0461     4.1812     0.3241 C.ar    
  16 S16           -1.0530     8.0478     0.4450 S.3     
  17 C17            0.7096     8.3965     0.6943 C.3     
  18 F18            1.4389     7.9182    -0.3996 F       
  19 F19            0.8995     9.7774     0.8135 F       
  20 F20            1.1499     7.7628     1.8612 F       
  21 F21           -3.4517     6.3478     0.0215 F       
  22 Cl22          -0.2215    -4.4637    -0.5042 Cl      
  23 Br23           2.2603    -3.0773    -1.9710 Br      
  24 H24            1.7076    -0.1676    -1.6645 H       
  25 H25           -1.9891    -0.2065     0.5202 H       
  26 H26           -1.9501     1.6370     0.3731 H       
  27 H27           -3.2791     3.7500    -0.1358 H       
  28 H28            1.0206     6.0664     0.5734 H       
  29 H29            0.9603     3.6120     0.4057 H       
@<TRIPOS>BOND
   1    1    2 1
   2    1    8 2
   3    1    9 am
   4    2    3 ar
   5    2    7 ar
   6    3    4 ar
   7    3   24 1
   8    4    5 ar
   9    4   23 1
  10    5    6 ar
  11    5   22 1
  12    6    7 ar
  13    7   25 1
  14    9   10 1
  15    9   26 1
  16   10   11 ar
  17   10   15 ar
  18   11   12 ar
  19   11   27 1
  20   12   13 ar
  21   12   21 1
  22   13   14 ar
  23   13   16 1
  24   14   15 ar
  25   14   28 1
  26   15   29 1
  27   16   17 1
  28   17   18 1
  29   17   19 1
  30   17   20 1

#	End of record

