#	Name: ASD01883733
#	Creating user name:	WinNT
#	Creation time:	15. 06. 2019 19:47

#	Modifying user name:	WinNT
#	Modification time:	15. 06. 2019 19:47

#	Program:	/corina/corina34_cracker 3.40 0067  02.08.2006

@<TRIPOS>MOLECULE
ASD01883733
  55   58    0    0    0
SMALL
NO_CHARGES


@<TRIPOS>ATOM
   1 C1            -0.2307     1.0871    -0.6224 C.2     
   2 C2            -0.1375    -0.2937    -0.5166 C.2     
   3 C3            -1.3254    -1.0606    -0.5245 C.2     
   4 C4            -2.5207    -0.4438    -0.6338 C.2     
   5 N5            -2.6031     0.9095    -0.7370 N.am    
   6 C6            -1.4980     1.6775    -0.7282 C.2     
   7 O7            -1.5988     2.8909    -0.8219 O.2     
   8 Cl8            1.2008     2.0693    -0.6166 Cl      
   9 C9            -3.9187     1.5432    -0.8544 C.3     
  10 C10            1.1828    -0.9522    -0.3981 C.ar    
  11 C11            1.5203    -1.6392     0.7679 C.ar    
  12 C12            2.7552    -2.2552     0.8782 C.ar    
  13 C13            3.6607    -2.1932    -0.1773 C.ar    
  14 C14            3.3208    -1.5042    -1.3402 C.ar    
  15 C15            2.0925    -0.8930    -1.4547 C.ar    
  16 C16           -4.4544     1.8687     0.5413 C.3     
  17 C17           -5.8284     2.5306     0.4186 C.3     
  18 C18           -6.3641     2.8560     1.8143 C.3     
  19 O19            3.0578    -2.9082     2.0342 O.3     
  20 C20            4.1817    -3.7938     1.9967 C.3     
  21 C21            5.3256    -3.0736     1.2711 C.3     
  22 N22            4.9105    -2.8101    -0.1114 N.3     
  23 C23            5.9247    -2.0221    -0.8245 C.3     
  24 C24            6.0671    -0.6491    -0.1603 C.3     
  25 C25            7.1804     0.1347    -0.8604 C.3     
  26 O26            8.3984    -0.6098    -0.7957 O.3     
  27 C27            8.3391    -1.8830    -1.4420 C.3     
  28 C28            7.2724    -2.7479    -0.7653 C.3     
  29 H29           -1.2763    -2.1364    -0.4437 H       
  30 H30           -3.4253    -1.0338    -0.6397 H       
  31 H31           -3.8286     2.4629    -1.4326 H       
  32 H32           -4.6058     0.8633    -1.3580 H       
  33 H33            0.8172    -1.6905     1.5861 H       
  34 H34            4.0239    -1.4529    -2.1584 H       
  35 H35            1.8361    -0.3608    -2.3589 H       
  36 H36           -4.5444     0.9491     1.1194 H       
  37 H37           -3.7672     2.5486     1.0448 H       
  38 H38           -5.7383     3.4502    -0.1596 H       
  39 H39           -6.5156     1.8506    -0.0849 H       
  40 H40           -6.4541     1.9364     2.3925 H       
  41 H41           -5.6769     3.5360     2.3178 H       
  42 H42           -7.3430     3.3275     1.7269 H       
  43 H43            4.4885    -4.0434     3.0124 H       
  44 H44            3.9170    -4.7029     1.4568 H       
  45 H45            5.5419    -2.1311     1.7741 H       
  46 H46            6.2144    -3.7045     1.2724 H       
  47 H47            5.6230    -1.8947    -1.8641 H       
  48 H48            5.1275    -0.1034    -0.2469 H       
  49 H49            6.3189    -0.7780     0.8923 H       
  50 H50            6.9092     0.2983    -1.9033 H       
  51 H51            7.3151     1.0960    -0.3646 H       
  52 H52            8.0831    -1.7458    -2.4926 H       
  53 H53            9.3086    -2.3752    -1.3651 H       
  54 H54            7.5485    -2.9192     0.2751 H       
  55 H55            7.1947    -3.7031    -1.2846 H       
@<TRIPOS>BOND
   1    1    2 2
   2    1    8 1
   3    1    6 1
   4    2    3 1
   5    2   10 1
   6    3    4 2
   7    3   29 1
   8    4    5 1
   9    4   30 1
  10    5    6 am
  11    5    9 1
  12    6    7 2
  13    9   16 1
  14    9   31 1
  15    9   32 1
  16   10   11 ar
  17   10   15 ar
  18   11   12 ar
  19   11   33 1
  20   12   13 ar
  21   12   19 1
  22   13   14 ar
  23   13   22 1
  24   14   15 ar
  25   14   34 1
  26   15   35 1
  27   16   17 1
  28   16   36 1
  29   16   37 1
  30   17   18 1
  31   17   38 1
  32   17   39 1
  33   18   40 1
  34   18   41 1
  35   18   42 1
  36   19   20 1
  37   20   21 1
  38   20   43 1
  39   20   44 1
  40   21   22 1
  41   21   45 1
  42   21   46 1
  43   22   23 1
  44   23   24 1
  45   23   28 1
  46   23   47 1
  47   24   25 1
  48   24   48 1
  49   24   49 1
  50   25   26 1
  51   25   50 1
  52   25   51 1
  53   26   27 1
  54   27   28 1
  55   27   52 1
  56   27   53 1
  57   28   54 1
  58   28   55 1

#	End of record

