#	Name: ASD01918046
#	Creating user name:	WinNT
#	Creation time:	15. 06. 2019 20:10

#	Modifying user name:	WinNT
#	Modification time:	15. 06. 2019 20:10

#	Program:	/corina/corina34_cracker 3.40 0067  02.08.2006

@<TRIPOS>MOLECULE
ASD01918046
  40   43    0    0    0
SMALL
NO_CHARGES


@<TRIPOS>ATOM
   1 N1             4.8285    -0.3978    -2.1618 N.ar    
   2 C2             5.2939     0.3013    -3.1777 C.ar    
   3 C3             5.1781     1.6842    -3.2015 C.ar    
   4 C4             4.5622     2.3297    -2.1358 C.ar    
   5 C5             4.0845     1.5566    -1.0830 C.ar    
   6 C6             4.2385     0.1784    -1.1334 C.ar    
   7 O7             3.4755     2.1431    -0.0192 O.3     
   8 C8             3.4522     3.5021     0.0341 C.2     
   9 N9             2.1957     5.5127    -0.0253 N.pl3   
  10 C10            2.2682     4.1532    -0.0731 C.2     
  11 C11            4.6526     4.2060     0.2047 C.2     
  12 C12            4.6254     5.5939     0.2592 C.2     
  13 C13            3.3315     6.2677     0.1348 C.2     
  14 C14            5.8650     6.3668     0.4378 C.2     
  15 N15            5.8185     7.7129     0.4882 N.am    
  16 C16            6.9767     8.4350     0.6551 C.2     
  17 O17            6.9314     5.7909     0.5398 O.2     
  18 C18            1.1686     6.4035    -0.1050 C.2     
  19 N19            1.6804     7.6025    -0.0053 N.2     
  20 N20            2.9570     7.5315     0.1425 N.2     
  21 O21            5.6610     2.3976    -4.2526 O.3     
  22 C22            6.2806     1.6595    -5.3078 C.3     
  23 C23            7.1058     9.9439     0.7330 C.3     
  24 C24            8.5979    10.1477     0.9184 C.2     
  25 C25            9.1203     8.9233     0.9295 C.2     
  26 N26            8.1800     7.9615     0.7833 N.2     
  27 F27            9.2557    11.3210     1.0447 F       
  28 H28            5.7714    -0.2082    -4.0016 H       
  29 H29            4.4575     3.4045    -2.1253 H       
  30 H30            3.8704    -0.4295    -0.3201 H       
  31 H31            1.3611     3.5809    -0.1996 H       
  32 H32            5.5887     3.6748     0.2932 H       
  33 H33            4.9680     8.1722     0.4068 H       
  34 H34            0.1234     6.1636    -0.2334 H       
  35 H35            6.6209     2.3478    -6.0815 H       
  36 H36            7.1329     1.1068    -4.9128 H       
  37 H37            5.5605     0.9610    -5.7341 H       
  38 H38            6.7650    10.4085    -0.1922 H       
  39 H39            6.5540    10.3346     1.5880 H       
  40 H40           10.1747     8.7206     1.0457 H       
@<TRIPOS>BOND
   1    1    2 ar
   2    1    6 ar
   3    2    3 ar
   4    2   28 1
   5    3    4 ar
   6    3   21 1
   7    4    5 ar
   8    4   29 1
   9    5    6 ar
  10    5    7 1
  11    6   30 1
  12    7    8 1
  13    8   11 1
  14    8   10 2
  15    9   10 1
  16    9   18 1
  17    9   13 1
  18   10   31 1
  19   11   12 2
  20   11   32 1
  21   12   13 1
  22   12   14 1
  23   13   20 2
  24   14   15 am
  25   14   17 2
  26   15   16 1
  27   15   33 1
  28   16   23 1
  29   16   26 2
  30   18   19 2
  31   18   34 1
  32   19   20 1
  33   21   22 1
  34   22   35 1
  35   22   36 1
  36   22   37 1
  37   23   24 1
  38   23   38 1
  39   23   39 1
  40   24   25 2
  41   24   27 1
  42   25   26 1
  43   25   40 1

#	End of record

