#	Name: ASD01912725
#	Creating user name:	WinNT
#	Creation time:	15. 06. 2019 20:00

#	Modifying user name:	WinNT
#	Modification time:	15. 06. 2019 20:00

#	Program:	/corina/corina34_cracker 3.40 0067  02.08.2006

@<TRIPOS>MOLECULE
ASD01912725
  44   47    0    0    0
SMALL
NO_CHARGES


@<TRIPOS>ATOM
   1 C1            -0.0165     1.3669     0.0096 C.2     
   2 N2             0.0021    -0.0041     0.0020 N.pl3   
   3 C3            -1.2023    -0.6921     0.0094 C.2     
   4 C4            -2.3629    -0.0499     0.0235 C.2     
   5 N5            -2.4359     1.3309     0.0317 N.am    
   6 C6            -1.3019     2.0668     0.0309 C.2     
   7 C7             1.3014     1.7836    -0.0008 C.2     
   8 C8             2.0550     0.6110    -0.0143 C.2     
   9 N9             1.2244    -0.4045    -0.0118 N.2     
  10 O10           -1.3488     3.2837     0.0384 O.2     
  11 C11           -3.6786     1.9639     0.0461 C.ar    
  12 C12            3.5595     0.5249    -0.0295 C.3     
  13 O13            4.1120     1.8427    -0.0282 O.3     
  14 C14            5.4672     1.9435    -0.0410 C.ar    
  15 C15            6.0711     3.1925    -0.0405 C.ar    
  16 C16            7.4489     3.2923    -0.0536 C.ar    
  17 C17            8.2259     2.1487    -0.0672 C.ar    
  18 C18            7.6265     0.9027    -0.0682 C.ar    
  19 C19            6.2492     0.7976    -0.0489 C.ar    
  20 C20           -4.8420     1.2108     0.1572 C.ar    
  21 N21           -6.0189     1.8100     0.1709 N.ar    
  22 C22           -4.9344     3.8841    -0.0268 C.ar    
  23 N23           -3.7517     3.2863    -0.0408 N.ar    
  24 C24           -6.0945     3.1252     0.0791 C.ar    
  25 C25           -7.4395     3.8048     0.0951 C.3     
  26 O26           -5.0130     5.2357    -0.1157 O.3     
  27 C27           -3.7808     5.9516    -0.2220 C.3     
  28 H28           -1.1950    -1.7721     0.0032 H       
  29 H29           -3.2784    -0.6228     0.0285 H       
  30 H30            1.6684     2.7994     0.0008 H       
  31 H31            3.9016    -0.0135     0.8543 H       
  32 H32            3.8840    -0.0043    -0.9255 H       
  33 H33            5.4646     4.0861    -0.0302 H       
  34 H34            7.9195     4.2643    -0.0536 H       
  35 H35            9.3029     2.2287    -0.0775 H       
  36 H36            8.2356     0.0109    -0.0796 H       
  37 H37            5.7814    -0.1759    -0.0497 H       
  38 H38           -4.7834     0.1350     0.2321 H       
  39 H39           -7.7140     4.0429     1.1227 H       
  40 H40           -7.3895     4.7232    -0.4898 H       
  41 H41           -8.1877     3.1397    -0.3361 H       
  42 H42           -3.9859     7.0202    -0.2857 H       
  43 H43           -3.1672     5.7511     0.6563 H       
  44 H44           -3.2496     5.6296    -1.1176 H       
@<TRIPOS>BOND
   1    1    2 1
   2    1    7 2
   3    1    6 1
   4    2    3 1
   5    2    9 1
   6    3    4 2
   7    3   28 1
   8    4    5 1
   9    4   29 1
  10    5    6 am
  11    5   11 1
  12    6   10 2
  13    7    8 1
  14    7   30 1
  15    8    9 2
  16    8   12 1
  17   11   20 ar
  18   11   23 ar
  19   12   13 1
  20   12   31 1
  21   12   32 1
  22   13   14 1
  23   14   15 ar
  24   14   19 ar
  25   15   16 ar
  26   15   33 1
  27   16   17 ar
  28   16   34 1
  29   17   18 ar
  30   17   35 1
  31   18   19 ar
  32   18   36 1
  33   19   37 1
  34   20   21 ar
  35   20   38 1
  36   21   24 ar
  37   22   23 ar
  38   22   26 1
  39   22   24 ar
  40   24   25 1
  41   25   39 1
  42   25   40 1
  43   25   41 1
  44   26   27 1
  45   27   42 1
  46   27   43 1
  47   27   44 1

#	End of record

