#	Name: ASD06140033
#	Creating user name:	WinNT
#	Creation time:	15. 06. 2019 21:05

#	Modifying user name:	WinNT
#	Modification time:	15. 06. 2019 21:05

#	Program:	/corina/corina34_cracker 3.40 0067  02.08.2006

@<TRIPOS>MOLECULE
ASD06140033
  21   22    0    0    0
SMALL
NO_CHARGES


@<TRIPOS>ATOM
   1 C1            -0.0162     1.3436     0.0094 C.2     
   2 N2             0.0021    -0.0041     0.0020 N.am    
   3 C3            -1.1910    -0.7147     0.0096 C.2     
   4 N4            -1.2853    -2.0078     0.0035 N.2     
   5 C5            -2.5029    -2.5180     0.0132 C.2     
   6 C6            -3.4834    -1.6134     0.0281 C.2     
   7 S7            -2.7493    -0.0119     0.0357 S.3     
   8 C8             1.1960     2.0656     0.0017 C.2     
   9 C9             1.3567     3.4200     0.0130 C.2     
  10 O10           -1.0797     1.9384     0.0177 O.2     
  11 S11            2.8433     1.4107    -0.0169 S.3     
  12 C12            3.6128     2.9509    -0.0164 C.2     
  13 N13            2.6312     3.8638     0.0018 N.am    
  14 O14            4.8108     3.1679    -0.0259 O.2     
  15 N15            0.2832     4.2826     0.0340 N.pl3   
  16 H16            0.8486    -0.4776    -0.0086 H       
  17 H17           -2.6900    -3.5817     0.0088 H       
  18 H18           -4.5422    -1.8259     0.0374 H       
  19 H19            2.8307     4.8131     0.0055 H       
  20 H20           -0.6210     3.9315     0.0413 H       
  21 H21            0.4313     5.2412     0.0416 H       
@<TRIPOS>BOND
   1    1    2 am
   2    1    8 1
   3    1   10 2
   4    2    3 1
   5    2   16 1
   6    3    4 2
   7    3    7 1
   8    4    5 1
   9    5    6 2
  10    5   17 1
  11    6    7 1
  12    6   18 1
  13    8   11 1
  14    8    9 2
  15    9   15 1
  16    9   13 1
  17   11   12 1
  18   12   13 am
  19   12   14 2
  20   13   19 1
  21   15   20 1
  22   15   21 1

#	End of record

