#	Name: ASD07300970
#	Creating user name:	WinNT
#	Creation time:	15. 06. 2019 21:10

#	Modifying user name:	WinNT
#	Modification time:	15. 06. 2019 21:10

#	Program:	/corina/corina34_cracker 3.40 0067  02.08.2006

@<TRIPOS>MOLECULE
ASD07300970
  39   40    0    0    0
SMALL
NO_CHARGES


@<TRIPOS>ATOM
   1 C1            -0.0169     1.4658     0.0591 C.2     
   2 C2             0.0021    -0.0041     0.0009 C.2     
   3 C3             1.2715    -0.6339    -0.0640 C.2     
   4 C4             2.3707     0.1577    -0.0678 C.2     
   5 N5             2.2552     1.5067    -0.0109 N.pl3   
   6 N6             1.1283     2.1148     0.0482 N.2     
   7 O7            -1.0315    -0.6547     0.0087 O.2     
   8 C8             3.4248     2.2744    -0.0170 C.ar    
   9 C9             4.6644     1.6533     0.0731 C.ar    
  10 C10            5.8177     2.4114     0.0665 C.ar    
  11 C11            5.7395     3.7937    -0.0301 C.ar    
  12 C12            4.5017     4.4149    -0.1197 C.ar    
  13 C13            3.3476     3.6580    -0.1190 C.ar    
  14 O14            6.8757     4.5394    -0.0365 O.3     
  15 C15            6.7211     5.9563    -0.1384 C.3     
  16 C16           -1.2980     2.2003     0.1223 C.2     
  17 C17           -1.3009     3.6119     0.1778 C.2     
  18 C18           -2.4727     4.2837     0.2356 C.2     
  19 O19           -2.3515     1.5883     0.1267 O.2     
  20 N20           -2.4755     5.6480     0.2892 N.pl3   
  21 C21           -1.2087     6.3838     0.2839 C.3     
  22 C22           -3.7453     6.3760     0.3519 C.3     
  23 H23            1.3587    -1.7094    -0.1085 H       
  24 H24            3.3514    -0.2919    -0.1165 H       
  25 H25            4.7255     0.5777     0.1486 H       
  26 H26            6.7813     1.9288     0.1369 H       
  27 H27            4.4417     5.4907    -0.1942 H       
  28 H28            2.3846     4.1412    -0.1933 H       
  29 H29            7.7027     6.4303    -0.1324 H       
  30 H30            6.2058     6.1997    -1.0676 H       
  31 H31            6.1370     6.3199     0.7070 H       
  32 H32           -0.3670     4.1543     0.1739 H       
  33 H33           -3.4066     3.7413     0.2395 H       
  34 H34           -0.9222     6.6066    -0.7439 H       
  35 H35           -1.3272     7.3150     0.8380 H       
  36 H36           -0.4344     5.7774     0.7537 H       
  37 H37           -4.0326     6.5163     1.3939 H       
  38 H38           -3.6307     7.3482    -0.1275 H       
  39 H39           -4.5173     5.8052    -0.1641 H       
@<TRIPOS>BOND
   1    1    2 1
   2    1    6 2
   3    1   16 1
   4    2    3 1
   5    2    7 2
   6    3    4 2
   7    3   23 1
   8    4    5 1
   9    4   24 1
  10    5    6 1
  11    5    8 1
  12    8    9 ar
  13    8   13 ar
  14    9   10 ar
  15    9   25 1
  16   10   11 ar
  17   10   26 1
  18   11   12 ar
  19   11   14 1
  20   12   13 ar
  21   12   27 1
  22   13   28 1
  23   14   15 1
  24   15   29 1
  25   15   30 1
  26   15   31 1
  27   16   17 1
  28   16   19 2
  29   17   18 2
  30   17   32 1
  31   18   20 1
  32   18   33 1
  33   20   21 1
  34   20   22 1
  35   21   34 1
  36   21   35 1
  37   21   36 1
  38   22   37 1
  39   22   38 1
  40   22   39 1

#	End of record

