#	Name: ASD01410230
#	Creating user name:	WinNT
#	Creation time:	15. 06. 2019 19:17

#	Modifying user name:	WinNT
#	Modification time:	15. 06. 2019 19:17

#	Program:	/corina/corina34_cracker 3.40 0067  02.08.2006

@<TRIPOS>MOLECULE
ASD01410230
  44   46    0    0    0
SMALL
NO_CHARGES


@<TRIPOS>ATOM
   1 C1             0.5864     2.1598     0.7138 C.2     
   2 C2             0.7659     0.8207     0.6721 C.2     
   3 C3            -0.4997     0.2367     0.5133 C.2     
   4 C4            -1.4083     1.2756     0.4652 C.2     
   5 O5            -0.7213     2.4300     0.5943 O.3     
   6 C6            -3.5917     2.2670     0.2812 C.2     
   7 S7            -3.0901     3.9656     0.4103 S.3     
   8 C8            -4.7373     4.6031     0.2589 C.2     
   9 N9            -5.5366     3.5709     0.1266 N.2     
  10 C10           -5.0500     2.3485     0.1260 C.2     
  11 C11           -2.8081     1.1518     0.3128 C.2     
  12 O12           -5.7557     1.3588     0.0053 O.2     
  13 N13           -5.1060     5.9234     0.2767 N.pl3   
  14 C14           -6.5008     6.2978     0.0305 C.3     
  15 C15            1.6798     3.1842     0.8752 C.3     
  16 C16            2.2007     3.5957    -0.5032 C.3     
  17 C17           -8.5670     5.6890     1.3048 C.ar    
  18 C18           -7.2819     6.1983     1.3154 C.ar    
  19 C19           -6.7126     6.6161     2.5039 C.ar    
  20 C20           -7.4278     6.5250     3.6829 C.ar    
  21 C21           -8.7152     6.0154     3.6734 C.ar    
  22 C22           -9.2845     5.5977     2.4824 C.ar    
  23 C23           -5.8908     7.8064    -1.8406 C.2     
  24 O24           -5.5109     6.7948    -2.3811 O.2     
  25 O25           -5.7181     8.9941    -2.4418 O.3     
  26 C26           -6.5585     7.7348    -0.4915 C.3     
  27 F27           -9.4151     5.9254     4.8254 F       
  28 H28            1.7080     0.2979     0.7465 H       
  29 H29           -0.7201    -0.8182     0.4421 H       
  30 H30           -3.2569     0.1737     0.2213 H       
  31 H31           -4.4433     6.6096     0.4523 H       
  32 H32           -6.9324     5.6246    -0.7101 H       
  33 H33            1.2844     4.0596     1.3904 H       
  34 H34            2.4950     2.7565     1.4589 H       
  35 H35            2.9916     4.3366    -0.3865 H       
  36 H36            2.5961     2.7203    -1.0184 H       
  37 H37            1.3855     4.0233    -1.0869 H       
  38 H38           -9.0123     5.3667     0.3751 H       
  39 H39           -5.7084     7.0136     2.5111 H       
  40 H40           -6.9826     6.8507     4.6114 H       
  41 H41          -10.2887     5.2004     2.4737 H       
  42 H42           -5.2849     8.9896    -3.3063 H       
  43 H43           -7.5990     8.0462    -0.5841 H       
  44 H44           -6.0421     8.3954     0.2050 H       
@<TRIPOS>BOND
   1    1    2 2
   2    1   15 1
   3    1    5 1
   4    2    3 1
   5    2   28 1
   6    3    4 2
   7    3   29 1
   8    4    5 1
   9    4   11 1
  10    6    7 1
  11    6   10 1
  12    6   11 2
  13    7    8 1
  14    8    9 2
  15    8   13 1
  16    9   10 1
  17   10   12 2
  18   11   30 1
  19   13   14 1
  20   13   31 1
  21   14   18 1
  22   14   26 1
  23   14   32 1
  24   15   16 1
  25   15   33 1
  26   15   34 1
  27   16   35 1
  28   16   36 1
  29   16   37 1
  30   17   18 ar
  31   17   22 ar
  32   17   38 1
  33   18   19 ar
  34   19   20 ar
  35   19   39 1
  36   20   21 ar
  37   20   40 1
  38   21   22 ar
  39   21   27 1
  40   22   41 1
  41   23   24 2
  42   23   25 1
  43   23   26 1
  44   25   42 1
  45   26   43 1
  46   26   44 1

#	End of record

