#	Name: ASD01410729
#	Creating user name:	WinNT
#	Creation time:	15. 06. 2019 19:18

#	Modifying user name:	WinNT
#	Modification time:	15. 06. 2019 19:18

#	Program:	/corina/corina34_cracker 3.40 0067  02.08.2006

@<TRIPOS>MOLECULE
ASD01410729
 129  136    0    0    0
SMALL
NO_CHARGES


@<TRIPOS>ATOM
   1 C1             1.0471     1.0136     1.5795 C.3     
   2 C2             0.3516    -0.1625     2.3035 C.3     
   3 N3             0.3508     0.2297     3.7280 N.am    
   4 C4             0.3713     1.6955     3.8061 C.3     
   5 C5             0.4805     2.2301     2.3614 C.3     
   6 O6             2.4673     0.9323     1.7152 O.3     
   7 C7            -0.9015     2.1927     4.4417 C.2     
   8 O8            -1.7500     1.4028     4.7982 O.2     
   9 N9            -1.0968     3.5150     4.6139 N.am    
  10 C10            1.2054    -1.4286     2.1718 C.3     
  11 C11            0.5647    -2.1066     4.5406 C.3     
  12 C12            0.3696    -0.6325     4.7584 C.2     
  13 O13            0.2268    -0.2125     5.8872 O.2     
  14 C14           -0.6325    -2.8616     5.1216 C.3     
  15 C15           -0.8963    -2.3783     6.5491 C.3     
  16 C16           -2.3846     4.0067     5.1101 C.3     
  17 C17           -3.5799     3.6773     4.2535 C.2     
  18 N18           -3.4368     3.5425     2.9201 N.am    
  19 O19           -4.6706     3.5335     4.7640 O.2     
  20 S20           -4.7674     3.2976     1.9652 S.o2    
  21 C21           -5.7295     4.8267     2.1285 C.3     
  22 C22           -2.5902     4.0435     6.6258 C.3     
  23 C23           -2.3921     5.3470     5.8481 C.3     
  24 C24           -7.0989     4.8758     1.4479 C.3     
  25 C25           -7.0051     4.7721     2.9715 C.3     
  26 O26           -4.2388     3.1789     0.6515 O.2     
  27 O27           -5.4467     2.2127     2.5823 O.2     
  28 C28           -3.9727     3.7480     7.1478 C.2     
  29 C29           -4.1643     2.7377     7.9594 C.2     
  30 C30            3.2129     1.5393     0.7588 C.ar    
  31 C31            4.6261     1.5179     0.8174 C.ar    
  32 C32            2.6174     2.1848    -0.2930 C.ar    
  33 C33            3.4105     2.8045    -1.2684 C.ar    
  34 N34            4.7309     2.7831    -1.2018 N.ar    
  35 C35            5.3675     2.1645    -0.2022 C.ar    
  36 C36            2.7557     3.4974    -2.3978 C.2     
  37 C37            6.7719     2.1491    -0.1422 C.ar    
  38 C38            7.4011     1.5044     0.8994 C.ar    
  39 C39            6.6589     0.8652     1.8966 C.ar    
  40 C40            5.2981     0.8701     1.8640 C.ar    
  41 Cl41           7.7074     2.9376    -1.3738 Cl      
  42 O42            8.7584     1.4891     0.9582 O.3     
  43 C43            9.3522     0.8042     2.0629 C.3     
  44 C44           -1.8682    -2.6001     4.2581 C.3     
  45 N45            3.3719     4.1108    -3.3677 N.2     
  46 C46           10.8761     0.8937     1.9591 C.3     
  47 N47           11.2950     2.2947     2.0998 N.3     
  48 C48           12.7546     2.3963     2.2431 C.3     
  49 C49           13.1522     3.8724     2.3265 C.3     
  50 O50           12.4573     4.4873     3.4147 O.3     
  51 C51           11.0334     4.4074     3.3072 C.3     
  52 C52           10.6143     2.9367     3.2337 C.3     
  53 C53            2.6261     4.6722    -4.2883 C.2     
  54 C54            1.3029     4.5486    -4.1228 C.2     
  55 S55            1.0168     3.6197    -2.6524 S.3     
  56 C56            3.2208     5.4111    -5.4594 C.3     
  57 C57            3.3254     4.4666    -6.6585 C.3     
  58 C58            2.3255     6.5978    -5.8215 C.3     
  59 C59           -2.0119    -3.2184     7.1740 C.3     
  60 N60            0.6849    -2.4227     3.1190 N.am    
  61 O61            0.4296    -3.9403     1.3653 O.3     
  62 C62            0.0111    -5.2689     0.9555 C.3     
  63 C63           -1.4682    -5.4646     1.2935 C.3     
  64 C64            0.2147    -5.4252    -0.5528 C.3     
  65 C65            0.8459    -6.3170     1.6942 C.3     
  66 C66            0.3142    -3.6391     2.6725 C.2     
  67 O67           -0.1242    -4.4639     3.4496 O.2     
  68 H68            0.7579     1.0531     0.5293 H       
  69 H69           -0.6620    -0.3137     1.9320 H       
  70 H70            1.2319     2.0237     4.3889 H       
  71 H71            1.1693     3.0735     2.3137 H       
  72 H72           -0.5010     2.5106     1.9792 H       
  73 H73           -0.3848     4.1412     4.4093 H       
  74 H74            1.1365    -1.8160     1.1553 H       
  75 H75            2.2440    -1.1997     2.4106 H       
  76 H76            1.4714    -2.4263     5.0543 H       
  77 H77           -0.4172    -3.9300     5.1337 H       
  78 H78            0.0126    -2.4826     7.1417 H       
  79 H79           -1.1982    -1.3311     6.5282 H       
  80 H80           -2.5545     3.5890     2.5199 H       
  81 H81           -5.1473     5.7478     2.1550 H       
  82 H82           -1.7674     3.7018     7.2537 H       
  83 H83           -1.4390     5.8628     5.9648 H       
  84 H84           -3.2618     5.9903     5.7144 H       
  85 H85           -7.4178     5.8293     1.0270 H       
  86 H86           -7.4217     3.9893     0.9021 H       
  87 H87           -7.2662     3.8174     3.4280 H       
  88 H88           -7.2623     5.6575     3.5530 H       
  89 H89           -4.8055     4.3691     6.8527 H       
  90 H90           -5.1551     2.5260     8.3335 H       
  91 H91           -3.3315     2.1166     8.2545 H       
  92 H92            1.5407     2.2158    -0.3702 H       
  93 H93            7.1713     0.3648     2.7050 H       
  94 H94            4.7368     0.3726     2.6411 H       
  95 H95            9.0239     1.2644     2.9948 H       
  96 H96            9.0479    -0.2424     2.0476 H       
  97 H97           -1.6803    -2.9444     3.2411 H       
  98 H98           -2.7211    -3.1379     4.6721 H       
  99 H99           -2.0835    -1.5316     4.2460 H       
 100 H100          11.3299     0.2975     2.7507 H       
 101 H101          11.1971     0.5142     0.9890 H       
 102 H102          13.0677     1.8830     3.1522 H       
 103 H103          13.2378     1.9374     1.3805 H       
 104 H104          14.2270     3.9511     2.4901 H       
 105 H105          12.8874     4.3738     1.3957 H       
 106 H106          10.5758     4.8731     4.1801 H       
 107 H107          10.7070     4.9244     2.4049 H       
 108 H108           9.5352     2.8723     3.0943 H       
 109 H109          10.8932     2.4321     4.1587 H       
 110 H110           0.5426     4.9455    -4.7793 H       
 111 H111           4.2141     5.7730    -5.1941 H       
 112 H112           2.3320     4.1047    -6.9237 H       
 113 H113           3.7555     5.0010    -7.5055 H       
 114 H114           3.9632     3.6212    -6.4005 H       
 115 H115           2.2510     7.2707    -4.9673 H       
 116 H116           2.7556     7.1323    -6.6685 H       
 117 H117           1.3322     6.2359    -6.0867 H       
 118 H118          -1.7099    -4.2655     7.1949 H       
 119 H119          -2.1998    -2.8740     8.1910 H       
 120 H120          -2.9207    -3.1140     6.5813 H       
 121 H121          -2.0629    -4.7179     0.7672 H       
 122 H122          -1.7823    -6.4620     0.9859 H       
 123 H123          -1.6133    -5.3532     2.3680 H       
 124 H124           1.2686    -5.2858    -0.7935 H       
 125 H125          -0.0994    -6.4226    -0.8604 H       
 126 H126          -0.3800    -4.6786    -1.0790 H       
 127 H127           0.7009    -6.2056     2.7687 H       
 128 H128           0.5318    -7.3144     1.3866 H       
 129 H129           1.8998    -6.1776     1.4534 H       
@<TRIPOS>BOND
   1    1    2 1
   2    1    6 1
   3    1    5 1
   4    1   68 1
   5    2    3 1
   6    2   10 1
   7    2   69 1
   8    3    4 1
   9    3   12 am
  10    4    5 1
  11    4    7 1
  12    4   70 1
  13    5   71 1
  14    5   72 1
  15    6   30 1
  16    7    8 2
  17    7    9 am
  18    9   16 1
  19    9   73 1
  20   10   60 1
  21   10   74 1
  22   10   75 1
  23   11   12 1
  24   11   14 1
  25   11   60 1
  26   11   76 1
  27   12   13 2
  28   14   15 1
  29   14   44 1
  30   14   77 1
  31   15   59 1
  32   15   78 1
  33   15   79 1
  34   16   17 1
  35   16   22 1
  36   16   23 1
  37   17   18 am
  38   17   19 2
  39   18   20 am
  40   18   80 1
  41   20   21 1
  42   20   26 2
  43   20   27 2
  44   21   24 1
  45   21   25 1
  46   21   81 1
  47   22   23 1
  48   22   28 1
  49   22   82 1
  50   23   83 1
  51   23   84 1
  52   24   25 1
  53   24   85 1
  54   24   86 1
  55   25   87 1
  56   25   88 1
  57   28   29 2
  58   28   89 1
  59   29   90 1
  60   29   91 1
  61   30   31 ar
  62   30   32 ar
  63   31   35 ar
  64   31   40 ar
  65   32   33 ar
  66   32   92 1
  67   33   34 ar
  68   33   36 1
  69   34   35 ar
  70   35   37 ar
  71   36   45 2
  72   36   55 1
  73   37   38 ar
  74   37   41 1
  75   38   39 ar
  76   38   42 1
  77   39   40 ar
  78   39   93 1
  79   40   94 1
  80   42   43 1
  81   43   46 1
  82   43   95 1
  83   43   96 1
  84   44   97 1
  85   44   98 1
  86   44   99 1
  87   45   53 1
  88   46   47 1
  89   46  100 1
  90   46  101 1
  91   47   48 1
  92   47   52 1
  93   48   49 1
  94   48  102 1
  95   48  103 1
  96   49   50 1
  97   49  104 1
  98   49  105 1
  99   50   51 1
 100   51   52 1
 101   51  106 1
 102   51  107 1
 103   52  108 1
 104   52  109 1
 105   53   54 2
 106   53   56 1
 107   54   55 1
 108   54  110 1
 109   56   57 1
 110   56   58 1
 111   56  111 1
 112   57  112 1
 113   57  113 1
 114   57  114 1
 115   58  115 1
 116   58  116 1
 117   58  117 1
 118   59  118 1
 119   59  119 1
 120   59  120 1
 121   60   66 am
 122   61   62 1
 123   61   66 1
 124   62   63 1
 125   62   64 1
 126   62   65 1
 127   63  121 1
 128   63  122 1
 129   63  123 1
 130   64  124 1
 131   64  125 1
 132   64  126 1
 133   65  127 1
 134   65  128 1
 135   65  129 1
 136   66   67 2

#	End of record

