#	Name: ASD01478099
#	Creating user name:	WinNT
#	Creation time:	15. 06. 2019 19:21

#	Modifying user name:	WinNT
#	Modification time:	15. 06. 2019 19:21

#	Program:	/corina/corina34_cracker 3.40 0067  02.08.2006

@<TRIPOS>MOLECULE
ASD01478099
  49   51    0    0    0
SMALL
NO_CHARGES


@<TRIPOS>ATOM
   1 C1             0.8653    -0.7931    -0.1284 C.2     
   2 C2             1.4702    -1.8839     0.2562 C.2     
   3 C3             2.9503    -1.6469     0.4466 C.3     
   4 C4             3.0963    -0.1091     0.5171 C.3     
   5 C5             1.8411     0.3532    -0.2587 C.3     
   6 O6             3.0602     0.3481     1.8705 O.3     
   7 Si7            4.3148     1.3060     2.2809 Si      
   8 C8             4.3053     1.5876     4.1275 C.ar    
   9 C9             4.2252     0.5107     4.9905 C.ar    
  10 C10            4.2181     0.7192     6.3570 C.ar    
  11 C11            4.2916     2.0044     6.8606 C.ar    
  12 C12            4.3726     3.0813     5.9976 C.ar    
  13 C13            4.3840     2.8726     4.6311 C.ar    
  14 C14            5.9160     0.4814     1.7850 C.ar    
  15 C15            6.4902    -0.4663     2.6114 C.ar    
  16 C16            7.6751    -1.0765     2.2445 C.ar    
  17 C17            8.2855    -0.7393     1.0510 C.ar    
  18 C18            7.7108     0.2078     0.2242 C.ar    
  19 C19            6.5237     0.8149     0.5890 C.ar    
  20 C20            4.1607     2.9417     1.4024 C.3     
  21 C21            2.9759     3.7200     1.9781 C.3     
  22 C22            5.4453     3.7492     1.5990 C.3     
  23 C23            3.9342     2.6991    -0.0911 C.3     
  24 H24           -0.1930    -0.7206    -0.3314 H       
  25 H25            0.9775    -2.8313     0.4175 H       
  26 H26            3.2916    -2.1037     1.3756 H       
  27 H27            3.5104    -2.0431    -0.4004 H       
  28 H28            4.0078     0.2207     0.0187 H       
  29 H29            2.0850     0.5270    -1.3067 H       
  30 H30            1.4281     1.2563     0.1908 H       
  31 H31            4.1679    -0.4934     4.5971 H       
  32 H32            4.1548    -0.1222     7.0313 H       
  33 H33            4.2853     2.1673     7.9282 H       
  34 H34            4.4296     4.0855     6.3910 H       
  35 H35            4.4510     3.7137     3.9569 H       
  36 H36            6.0133    -0.7298     3.5439 H       
  37 H37            8.1240    -1.8165     2.8905 H       
  38 H38            9.2116    -1.2155     0.7647 H       
  39 H39            8.1879     0.4716    -0.7082 H       
  40 H40            6.0728     1.5521    -0.0587 H       
  41 H41            3.0772     3.7874     3.0612 H       
  42 H42            2.9584     4.7230     1.5517 H       
  43 H43            2.0479     3.2041     1.7314 H       
  44 H44            6.2719     3.2442     1.0992 H       
  45 H45            5.3173     4.7446     1.1738 H       
  46 H46            5.6618     3.8340     2.6639 H       
  47 H47            2.9151     2.3473    -0.2517 H       
  48 H48            4.0878     3.6295    -0.6377 H       
  49 H49            4.6385     1.9475    -0.4480 H       
@<TRIPOS>BOND
   1    1    2 2
   2    1    5 1
   3    1   24 1
   4    2    3 1
   5    2   25 1
   6    3    4 1
   7    3   26 1
   8    3   27 1
   9    4    5 1
  10    4    6 1
  11    4   28 1
  12    5   29 1
  13    5   30 1
  14    6    7 1
  15    7    8 1
  16    7   14 1
  17    7   20 1
  18    8    9 ar
  19    8   13 ar
  20    9   10 ar
  21    9   31 1
  22   10   11 ar
  23   10   32 1
  24   11   12 ar
  25   11   33 1
  26   12   13 ar
  27   12   34 1
  28   13   35 1
  29   14   15 ar
  30   14   19 ar
  31   15   16 ar
  32   15   36 1
  33   16   17 ar
  34   16   37 1
  35   17   18 ar
  36   17   38 1
  37   18   19 ar
  38   18   39 1
  39   19   40 1
  40   20   21 1
  41   20   23 1
  42   20   22 1
  43   21   41 1
  44   21   42 1
  45   21   43 1
  46   22   44 1
  47   22   45 1
  48   22   46 1
  49   23   47 1
  50   23   48 1
  51   23   49 1

#	End of record

