#	Name: ASD03320232
#	Creating user name:	WinNT
#	Creation time:	15. 06. 2019 20:36

#	Modifying user name:	WinNT
#	Modification time:	15. 06. 2019 20:36

#	Program:	/corina/corina34_cracker 3.40 0067  02.08.2006

@<TRIPOS>MOLECULE
ASD03320232
  41   42    0    0    0
SMALL
NO_CHARGES


@<TRIPOS>ATOM
   1 C1            -0.0167     1.3781     0.0096 C.ar    
   2 C2             0.0021    -0.0041     0.0020 C.ar    
   3 C3             1.2084    -0.6789    -0.0132 C.ar    
   4 C4             2.3961     0.0285    -0.0212 C.ar    
   5 C5             2.3773     1.4107    -0.0145 C.ar    
   6 C6             1.1709     2.0855     0.0021 C.ar    
   7 C7             1.2289    -2.1857    -0.0205 C.3     
   8 N8             1.2217    -2.6688    -1.4077 N.4     
   9 C9             1.2417    -4.1377    -1.4148 C.3     
  10 C10            1.2342    -4.6408    -2.8597 C.3     
  11 C11            1.1292    -6.1672    -2.8677 C.3     
  12 N12            1.0019    -6.6407    -4.2482 N.pl3   
  13 C13            1.7962    -7.5490    -4.8524 C.2     
  14 C14            1.3483    -7.7111    -6.1189 C.2     
  15 C15            0.2423    -6.8731    -6.2948 C.2     
  16 N16            0.0303    -6.2352    -5.1723 N.2     
  17 C17           -0.5690    -6.7338    -7.5571 C.3     
  18 F18           -1.6182    -7.6590    -7.5416 F       
  19 F19           -1.0908    -5.4382    -7.6355 F       
  20 F20            0.2490    -6.9750    -8.6661 F       
  21 C21            1.1505     3.5924     0.0099 C.3     
  22 F22            1.1565     4.0520     1.3313 F       
  23 F23            2.2801     4.0775    -0.6577 F       
  24 F24           -0.0041     4.0464    -0.6365 F       
  25 O25            2.4436    -4.2432    -3.5088 O.3     
  26 H26           -0.9592     1.9054     0.0170 H       
  27 H27           -0.9258    -0.5567     0.0083 H       
  28 H28            3.3386    -0.4987    -0.0324 H       
  29 H29            3.3052     1.9634    -0.0201 H       
  30 H30            2.1288    -2.5393     0.4828 H       
  31 H31            0.3491    -2.5635     0.5004 H       
  32 H32            0.3887    -2.3415    -1.8736 H       
  33 H33            2.0362    -2.3191    -1.8899 H       
  34 H34            2.1416    -4.4913    -0.9116 H       
  35 H35            0.3619    -4.5155    -0.8940 H       
  36 H36            0.3813    -4.2152    -3.3883 H       
  37 H37            2.0249    -6.5954    -2.4178 H       
  38 H38            0.2533    -6.4741    -2.2961 H       
  39 H39            2.6388    -8.0556    -4.4053 H       
  40 H40            1.7702    -8.3708    -6.8626 H       
  41 H41            3.2454    -4.5866    -3.0912 H       
@<TRIPOS>BOND
   1    1    2 ar
   2    1    6 ar
   3    1   26 1
   4    2    3 ar
   5    2   27 1
   6    3    4 ar
   7    3    7 1
   8    4    5 ar
   9    4   28 1
  10    5    6 ar
  11    5   29 1
  12    6   21 1
  13    7    8 1
  14    7   30 1
  15    7   31 1
  16    8    9 1
  17    8   32 1
  18    8   33 1
  19    9   10 1
  20    9   34 1
  21    9   35 1
  22   10   11 1
  23   10   25 1
  24   10   36 1
  25   11   12 1
  26   11   37 1
  27   11   38 1
  28   12   13 1
  29   12   16 1
  30   13   14 2
  31   13   39 1
  32   14   15 1
  33   14   40 1
  34   15   16 2
  35   15   17 1
  36   17   18 1
  37   17   19 1
  38   17   20 1
  39   21   22 1
  40   21   23 1
  41   21   24 1
  42   25   41 1

#	End of record

