#	Name: ASD07030029
#	Creating user name:	WinNT
#	Creation time:	15. 06. 2019 21:08

#	Modifying user name:	WinNT
#	Modification time:	15. 06. 2019 21:08

#	Program:	/corina/corina34_cracker 3.40 0067  02.08.2006

@<TRIPOS>MOLECULE
ASD07030029
  54   57    0    0    0
SMALL
NO_CHARGES


@<TRIPOS>ATOM
   1 N1            -0.0179     1.4702     0.0101 N.3     
   2 C2             0.0021    -0.0041     0.0020 C.3     
   3 C3             1.4820    -0.4413     0.0110 C.3     
   4 C4             2.2089     0.7978     0.5967 C.3     
   5 C5             1.3770     1.9600    -0.0006 C.3     
   6 N6             1.6723    -1.6126     0.8769 N.3     
   7 C7            -0.7682     1.9929    -1.1396 C.3     
   8 C8            -0.9813     3.4982    -0.9679 C.3     
   9 N9            -1.7316     4.0208    -2.1176 N.3     
  10 C10           -1.9554     5.4668    -1.9869 C.3     
  11 C11           -2.1713     6.2673    -3.2727 C.3     
  12 C12           -3.3474     6.0001    -2.3313 C.3     
  13 C13           -2.0525     8.6188    -2.4101 C.ar    
  14 C14           -1.6222     7.6700    -3.3196 C.ar    
  15 C15           -0.6799     8.0217    -4.2752 C.ar    
  16 C16           -0.2005     9.3204    -4.2839 C.ar    
  17 C17           -0.6781    10.2245    -3.3380 C.ar    
  18 N18           -1.5799     9.8480    -2.4405 N.ar    
  19 C19           -0.1740    11.6197    -3.3337 C.ar    
  20 C20           -0.6464    12.5302    -2.3913 C.ar    
  21 C21           -0.1714    13.8312    -2.3922 C.ar    
  22 C22            0.7729    14.2250    -3.3306 C.ar    
  23 C23            1.2419    13.3220    -4.2660 C.ar    
  24 C24            0.7778    12.0217    -4.2689 C.ar    
  25 O25           -0.6302    14.7227    -1.4746 O.3     
  26 C26           -0.0969    16.0471    -1.5338 C.3     
  27 H27           -0.5030    -0.3866     0.8889 H       
  28 H28           -0.4892    -0.3766    -0.8968 H       
  29 H29            1.8287    -0.6487    -1.0014 H       
  30 H30            2.1590     0.8012     1.6856 H       
  31 H31            3.2429     0.8417     0.2547 H       
  32 H32            1.6974     2.1707    -1.0209 H       
  33 H33            1.4709     2.8516     0.6194 H       
  34 H34            2.6388    -1.9023     0.8860 H       
  35 H35            1.3411    -1.4285     1.8121 H       
  36 H36           -0.2061     1.8076    -2.0549 H       
  37 H37           -1.7352     1.4935    -1.1997 H       
  38 H38           -1.5434     3.6835    -0.0526 H       
  39 H39           -0.0143     3.9975    -0.9077 H       
  40 H40           -1.2623     3.8045    -2.9842 H       
  41 H41           -1.4163     5.9546    -1.1748 H       
  42 H42           -2.1472     5.7211    -4.2157 H       
  43 H43           -4.0972     5.2781    -2.6550 H       
  44 H44           -3.7241     6.8389    -1.7459 H       
  45 H45           -2.7893     8.3496    -1.6678 H       
  46 H46           -0.3280     7.2984    -4.9959 H       
  47 H47            0.5338     9.6281    -5.0136 H       
  48 H48           -1.3812    12.2226    -1.6620 H       
  49 H49            1.1418    15.2401    -3.3300 H       
  50 H50            1.9764    13.6333    -4.9939 H       
  51 H51            1.1495    11.3172    -4.9983 H       
  52 H52           -0.5460    16.6550    -0.7484 H       
  53 H53            0.9832    16.0106    -1.3921 H       
  54 H54           -0.3212    16.4860    -2.5060 H       
@<TRIPOS>BOND
   1    1    2 1
   2    1    5 1
   3    1    7 1
   4    2    3 1
   5    2   27 1
   6    2   28 1
   7    3    4 1
   8    3    6 1
   9    3   29 1
  10    4    5 1
  11    4   30 1
  12    4   31 1
  13    5   32 1
  14    5   33 1
  15    6   34 1
  16    6   35 1
  17    7    8 1
  18    7   36 1
  19    7   37 1
  20    8    9 1
  21    8   38 1
  22    8   39 1
  23    9   10 1
  24    9   40 1
  25   10   11 1
  26   10   12 1
  27   10   41 1
  28   11   12 1
  29   11   14 1
  30   11   42 1
  31   12   43 1
  32   12   44 1
  33   13   14 ar
  34   13   18 ar
  35   13   45 1
  36   14   15 ar
  37   15   16 ar
  38   15   46 1
  39   16   17 ar
  40   16   47 1
  41   17   18 ar
  42   17   19 1
  43   19   20 ar
  44   19   24 ar
  45   20   21 ar
  46   20   48 1
  47   21   22 ar
  48   21   25 1
  49   22   23 ar
  50   22   49 1
  51   23   24 ar
  52   23   50 1
  53   24   51 1
  54   25   26 1
  55   26   52 1
  56   26   53 1
  57   26   54 1

#	End of record

