#	Name: ASD03320084
#	Creating user name:	WinNT
#	Creation time:	15. 06. 2019 20:36

#	Modifying user name:	WinNT
#	Modification time:	15. 06. 2019 20:36

#	Program:	/corina/corina34_cracker 3.40 0067  02.08.2006

@<TRIPOS>MOLECULE
ASD03320084
  49   52    0    0    0
SMALL
NO_CHARGES


@<TRIPOS>ATOM
   1 C1            -0.0191     1.4692     0.0350 C.2     
   2 C2            -0.0017    -0.0062     0.0399 C.ar    
   3 C3             1.2150    -0.7012     0.0505 C.ar    
   4 C4             1.1789    -2.0927     0.0547 C.ar    
   5 C5            -0.0686    -2.7417     0.0483 C.ar    
   6 N6            -1.1942    -2.0439     0.0384 N.ar    
   7 C7            -1.1975    -0.7272     0.0400 C.ar    
   8 O8             1.0267     2.0897     0.0401 O.2     
   9 N9            -1.1942     2.1292     0.0193 N.am    
  10 C10           -1.2149     3.5254     0.1327 C.ar    
  11 C11           -0.2674     4.1730     0.9140 C.ar    
  12 C12           -0.2880     5.5493     1.0251 C.ar    
  13 C13           -1.2552     6.2856     0.3563 C.ar    
  14 C14           -2.2026     5.6402    -0.4246 C.ar    
  15 C15           -2.1803     4.2634    -0.5412 C.ar    
  16 O16           -1.2747     7.6407     0.4669 O.3     
  17 C17           -2.2982     8.3353    -0.2487 C.3     
  18 F18           -3.5527     7.9038     0.1956 F       
  19 F19           -2.1721     9.7106    -0.0253 F       
  20 F20           -2.1719     8.0715    -1.6167 F       
  21 N21            2.6677    -4.0157     0.7758 N.pl3   
  22 N22            3.9766    -4.4297     0.4979 N.2     
  23 C23            4.5116    -3.5808    -0.3426 C.2     
  24 C24            3.5714    -2.5928    -0.6359 C.2     
  25 C25            2.4331    -2.8765     0.0653 C.2     
  26 N26           -0.1205    -4.1234     0.0519 N.3     
  27 C27           -1.5159    -4.5997     0.0440 C.3     
  28 C28           -1.6793    -5.5158    -1.1869 C.3     
  29 C29           -0.2236    -5.9605    -1.4873 C.3     
  30 C30            0.5745    -4.6828    -1.1269 C.3     
  31 O31           -2.4975    -6.6443    -0.8719 O.3     
  32 Cl32          -3.3614     3.4558    -1.5243 Cl      
  33 H33            2.1561    -0.1712     0.0548 H       
  34 H34           -2.1385    -0.1973     0.0367 H       
  35 H35           -2.0254     1.6375    -0.0706 H       
  36 H36            0.4856     3.6004     1.4351 H       
  37 H37            0.4490     6.0528     1.6332 H       
  38 H38           -2.9552     6.2141    -0.9449 H       
  39 H39            2.0395    -4.4620     1.3650 H       
  40 H40            5.5135    -3.6358    -0.7419 H       
  41 H41            3.7171    -1.7531    -1.2993 H       
  42 H42           -1.7208    -5.1623     0.9549 H       
  43 H43           -2.1967    -3.7518    -0.0318 H       
  44 H44           -2.0940    -4.9606    -2.0283 H       
  45 H45            0.0686    -6.7959    -0.8510 H       
  46 H46           -0.1019    -6.2128    -2.5407 H       
  47 H47            0.5493    -3.9736    -1.9543 H       
  48 H48            1.6042    -4.9369    -0.8752 H       
  49 H49           -2.6315    -7.2519    -1.6121 H       
@<TRIPOS>BOND
   1    1    2 1
   2    1    8 2
   3    1    9 am
   4    2    3 ar
   5    2    7 ar
   6    3    4 ar
   7    3   33 1
   8    4    5 ar
   9    4   25 1
  10    5    6 ar
  11    5   26 1
  12    6    7 ar
  13    7   34 1
  14    9   10 1
  15    9   35 1
  16   10   11 ar
  17   10   15 ar
  18   11   12 ar
  19   11   36 1
  20   12   13 ar
  21   12   37 1
  22   13   14 ar
  23   13   16 1
  24   14   15 ar
  25   14   38 1
  26   15   32 1
  27   16   17 1
  28   17   18 1
  29   17   19 1
  30   17   20 1
  31   21   22 1
  32   21   25 1
  33   21   39 1
  34   22   23 2
  35   23   24 1
  36   23   40 1
  37   24   25 2
  38   24   41 1
  39   26   27 1
  40   26   30 1
  41   27   28 1
  42   27   42 1
  43   27   43 1
  44   28   29 1
  45   28   31 1
  46   28   44 1
  47   29   30 1
  48   29   45 1
  49   29   46 1
  50   30   47 1
  51   30   48 1
  52   31   49 1

#	End of record

