#	Name: ASD01028150
#	Creating user name:	WinNT
#	Creation time:	15. 06. 2019 18:56

#	Modifying user name:	WinNT
#	Modification time:	15. 06. 2019 18:56

#	Program:	/corina/corina34_cracker 3.40 0067  02.08.2006

@<TRIPOS>MOLECULE
ASD01028150
  49   51    0    0    0
SMALL
NO_CHARGES


@<TRIPOS>ATOM
   1 N1            -0.0178     1.4642     0.0101 N.3     
   2 C2             0.0021    -0.0041     0.0020 C.3     
   3 C3             0.7039    -0.5130     1.2631 C.3     
   4 C4             2.1331     0.0352     1.3025 C.3     
   5 C5             2.0858     1.5651     1.2611 C.3     
   6 C6             1.3439     2.0138     0.0000 C.3     
   7 C7             2.8099    -0.4136     2.5720 C.2     
   8 O8             2.2093    -1.1041     3.3680 O.2     
   9 N9             4.0825    -0.0476     2.8228 N.am    
  10 S10            6.3592    -0.0687     4.4647 S.3     
  11 C11            4.7077    -0.4622     3.9955 C.2     
  12 N12            4.1661    -1.1986     4.9150 N.2     
  13 C13            4.9119    -1.4948     5.9644 C.2     
  14 C14            6.1542    -0.9920     5.9518 C.2     
  15 S15            7.3720    -1.2154     7.2055 S.3     
  16 C16            8.7920    -0.2856     6.5654 C.3     
  17 O17           10.1711     0.4644     8.5536 O.3     
  18 C18            9.9363    -0.3812     7.5414 C.2     
  19 N19           10.8597    -1.2998     7.5401 N.2     
  20 C20           11.7079    -1.0599     8.5557 C.2     
  21 C21           11.2804     0.0431     9.1921 C.2     
  22 C22           11.9209     0.6881    10.3941 C.3     
  23 C23           13.3514     1.1055    10.0472 C.3     
  24 C24           11.1139     1.9225    10.8011 C.3     
  25 C25           11.9478    -0.3090    11.5542 C.3     
  26 H26           -0.5582     1.8228    -0.7629 H       
  27 H27           -1.0204    -0.3810    -0.0218 H       
  28 H28            0.5390    -0.3552    -0.8792 H       
  29 H29            0.1597    -0.1738     2.1445 H       
  30 H30            0.7324    -1.6025     1.2493 H       
  31 H31            2.6892    -0.3354     0.4414 H       
  32 H32            1.5633     1.9370     2.1425 H       
  33 H33            3.1015     1.9603     1.2458 H       
  34 H34            1.8745     1.6533    -0.8812 H       
  35 H35            1.2960     3.1025    -0.0252 H       
  36 H36            4.5628     0.5046     2.1862 H       
  37 H37            4.5447    -2.1017     6.7788 H       
  38 H38            9.0970    -0.7032     5.6059 H       
  39 H39            8.5126     0.7598     6.4343 H       
  40 H40           12.5760    -1.6485     8.8136 H       
  41 H41           13.3323     1.8159     9.2207 H       
  42 H42           13.8147     1.5720    10.9166 H       
  43 H43           13.9264     0.2261     9.7572 H       
  44 H44           10.0948     1.6252    11.0483 H       
  45 H45           11.5772     2.3890    11.6705 H       
  46 H46           11.0948     2.6329     9.9746 H       
  47 H47           12.5227    -1.1885    11.2642 H       
  48 H48           12.4110     0.1575    12.4236 H       
  49 H49           10.9286    -0.6064    11.8013 H       
@<TRIPOS>BOND
   1    1    2 1
   2    1    6 1
   3    1   26 1
   4    2    3 1
   5    2   27 1
   6    2   28 1
   7    3    4 1
   8    3   29 1
   9    3   30 1
  10    4    5 1
  11    4    7 1
  12    4   31 1
  13    5    6 1
  14    5   32 1
  15    5   33 1
  16    6   34 1
  17    6   35 1
  18    7    8 2
  19    7    9 am
  20    9   11 1
  21    9   36 1
  22   10   11 1
  23   10   14 1
  24   11   12 2
  25   12   13 1
  26   13   14 2
  27   13   37 1
  28   14   15 1
  29   15   16 1
  30   16   18 1
  31   16   38 1
  32   16   39 1
  33   17   18 1
  34   17   21 1
  35   18   19 2
  36   19   20 1
  37   20   21 2
  38   20   40 1
  39   21   22 1
  40   22   23 1
  41   22   24 1
  42   22   25 1
  43   23   41 1
  44   23   42 1
  45   23   43 1
  46   24   44 1
  47   24   45 1
  48   24   46 1
  49   25   47 1
  50   25   48 1
  51   25   49 1

#	End of record

