#	Name: ASD01912640
#	Creating user name:	WinNT
#	Creation time:	15. 06. 2019 20:00

#	Modifying user name:	WinNT
#	Modification time:	15. 06. 2019 20:00

#	Program:	/corina/corina34_cracker 3.40 0067  02.08.2006

@<TRIPOS>MOLECULE
ASD01912640
  38   41    0    0    0
SMALL
NO_CHARGES


@<TRIPOS>ATOM
   1 C1            -0.0263     1.3423     0.2518 C.2     
   2 N2             0.0029    -0.0021    -0.0157 N.pl3   
   3 C3            -1.1915    -0.6649    -0.2569 C.2     
   4 C4            -2.3525    -0.0237    -0.2335 C.2     
   5 N5            -2.4359     1.3308     0.0307 N.am    
   6 C6            -1.3128     2.0401     0.2816 C.2     
   7 C7             1.2833     1.7382     0.4493 C.2     
   8 C8             2.0431     0.5810     0.2852 C.2     
   9 N9             1.2235    -0.4066     0.0129 N.2     
  10 O10           -1.3689     3.2337     0.5162 O.2     
  11 C11           -3.6798     1.9644     0.0447 C.ar    
  12 C12            3.5425     0.4821     0.3999 C.3     
  13 O13            4.0827     1.7689     0.7067 O.3     
  14 C14            5.4319     1.8547     0.8450 C.ar    
  15 C15            6.0238     3.0735     1.1428 C.ar    
  16 C16            7.3955     3.1581     1.2828 C.ar    
  17 C17            8.1785     2.0292     1.1264 C.ar    
  18 C18            7.5910     0.8134     0.8291 C.ar    
  19 C19            6.2192     0.7224     0.6942 C.ar    
  20 C20           -4.0139     2.9055    -0.9279 C.ar    
  21 C21           -5.2536     3.5088    -0.8791 C.ar    
  22 N22           -6.1167     3.2052     0.0718 N.ar    
  23 C23           -5.8379     2.3200     1.0099 C.ar    
  24 C24           -4.6222     1.6681     1.0283 C.ar    
  25 H25           -1.1758    -1.7239    -0.4684 H       
  26 H26           -3.2600    -0.5764    -0.4269 H       
  27 H27            1.6410     2.7306     0.6806 H       
  28 H28            3.8007    -0.2190     1.1936 H       
  29 H29            3.9567     0.1300    -0.5449 H       
  30 H30            5.4127     3.9556     1.2647 H       
  31 H31            7.8568     4.1068     1.5143 H       
  32 H32            9.2507     2.0973     1.2363 H       
  33 H33            8.2048    -0.0668     0.7067 H       
  34 H34            5.7608    -0.2276     0.4620 H       
  35 H35           -3.3119     3.1591    -1.7085 H       
  36 H36           -5.5210     4.2391    -1.6285 H       
  37 H37           -6.5724     2.1000     1.7706 H       
  38 H38           -4.4005     0.9444     1.7988 H       
@<TRIPOS>BOND
   1    1    2 1
   2    1    7 2
   3    1    6 1
   4    2    3 1
   5    2    9 1
   6    3    4 2
   7    3   25 1
   8    4    5 1
   9    4   26 1
  10    5    6 am
  11    5   11 1
  12    6   10 2
  13    7    8 1
  14    7   27 1
  15    8    9 2
  16    8   12 1
  17   11   20 ar
  18   11   24 ar
  19   12   13 1
  20   12   28 1
  21   12   29 1
  22   13   14 1
  23   14   15 ar
  24   14   19 ar
  25   15   16 ar
  26   15   30 1
  27   16   17 ar
  28   16   31 1
  29   17   18 ar
  30   17   32 1
  31   18   19 ar
  32   18   33 1
  33   19   34 1
  34   20   21 ar
  35   20   35 1
  36   21   22 ar
  37   21   36 1
  38   22   23 ar
  39   23   24 ar
  40   23   37 1
  41   24   38 1

#	End of record

