#	Name: ASD01200529
#	Creating user name:	WinNT
#	Creation time:	15. 06. 2019 19:09

#	Modifying user name:	WinNT
#	Modification time:	15. 06. 2019 19:09

#	Program:	/corina/corina34_cracker 3.40 0067  02.08.2006

@<TRIPOS>MOLECULE
ASD01200529
  31   32    0    0    0
SMALL
NO_CHARGES


@<TRIPOS>ATOM
   1 N1            -0.5047     1.0937    -0.3492 N.ar    
   2 C2            -0.3041    -0.1979    -0.1808 C.ar    
   3 C3             0.9676    -0.7405    -0.3143 C.ar    
   4 C4             2.0314     0.1009    -0.6299 C.ar    
   5 C5             1.7743     1.4518    -0.7983 C.ar    
   6 C6             0.4812     1.9169    -0.6485 C.ar    
   7 N7             1.1767    -2.1119    -0.1339 N.am    
   8 C8             2.4788    -2.7025    -0.4533 C.3     
   9 C9             0.1804    -2.8897     0.3338 C.2     
  10 O10           -0.8890    -2.3936     0.6330 O.2     
  11 O11            0.0355    -6.4813     0.7907 O.3     
  12 C12           -0.5641    -5.2884     0.7276 C.2     
  13 C13            0.3866    -4.3411     0.4825 C.2     
  14 C14            1.6600    -5.0712     0.3972 C.2     
  15 C15            1.3582    -6.3635     0.5956 C.2     
  16 C16            2.3466    -7.5010     0.5988 C.3     
  17 C17           -2.0395    -5.0332     0.8982 C.3     
  18 H18           -1.1367    -0.8409     0.0637 H       
  19 H19            3.0321    -0.2899    -0.7402 H       
  20 H20            2.5751     2.1339    -1.0432 H       
  21 H21            0.2753     2.9690    -0.7791 H       
  22 H22            3.0750    -2.7811     0.4559 H       
  23 H23            2.3328    -3.6953    -0.8790 H       
  24 H24            2.9974    -2.0707    -1.1743 H       
  25 H25            2.6384    -4.6528     0.2126 H       
  26 H26            1.8215    -8.4381     0.7841 H       
  27 H27            2.8473    -7.5501    -0.3682 H       
  28 H28            3.0860    -7.3377     1.3829 H       
  29 H29           -2.5524    -5.9770     1.0835 H       
  30 H30           -2.1969    -4.3622     1.7427 H       
  31 H31           -2.4363    -4.5759    -0.0081 H       
@<TRIPOS>BOND
   1    1    2 ar
   2    1    6 ar
   3    2    3 ar
   4    2   18 1
   5    3    4 ar
   6    3    7 1
   7    4    5 ar
   8    4   19 1
   9    5    6 ar
  10    5   20 1
  11    6   21 1
  12    7    8 1
  13    7    9 am
  14    8   22 1
  15    8   23 1
  16    8   24 1
  17    9   10 2
  18    9   13 1
  19   11   12 1
  20   11   15 1
  21   12   13 2
  22   12   17 1
  23   13   14 1
  24   14   15 2
  25   14   25 1
  26   15   16 1
  27   16   26 1
  28   16   27 1
  29   16   28 1
  30   17   29 1
  31   17   30 1
  32   17   31 1

#	End of record

