#	Name: ASD03082290
#	Creating user name:	WinNT
#	Creation time:	15. 06. 2019 20:27

#	Modifying user name:	WinNT
#	Modification time:	15. 06. 2019 20:27

#	Program:	/corina/corina34_cracker 3.40 0067  02.08.2006

@<TRIPOS>MOLECULE
ASD03082290
  44   46    0    0    0
SMALL
NO_CHARGES


@<TRIPOS>ATOM
   1 N1            -0.0313     1.4962    -0.0268 N.pl3   
   2 N2            -0.0472     0.0923     0.0027 N.2     
   3 C3             1.1705    -0.2979     0.3031 C.2     
   4 N4             1.9444     0.7765     0.4627 N.2     
   5 C5             1.2341     1.8691     0.2670 C.2     
   6 N6             1.5874    -1.6239     0.4350 N.pl3   
   7 C7             2.8851    -1.9088     0.8719 C.ar    
   8 C8             3.5371    -1.0340     1.7318 C.ar    
   9 C9             4.8185    -1.3166     2.1632 C.ar    
  10 C10            5.4545    -2.4706     1.7391 C.ar    
  11 C11            4.8066    -3.3460     0.8807 C.ar    
  12 C12            3.5212    -3.0692     0.4513 C.ar    
  13 C13            1.7341     3.2597     0.3535 C.ar    
  14 C14           -1.1607     2.3808    -0.3234 C.3     
  15 C15            0.8970     4.2995     0.7776 C.ar    
  16 C16            1.3995     5.5813     0.8456 C.ar    
  17 N17            2.6517     5.8387     0.5176 N.ar    
  18 C18            3.4793     4.8878     0.1113 C.ar    
  19 C19            3.0543     3.5686     0.0203 C.ar    
  20 O20           -1.8589     1.8935    -1.4711 O.3     
  21 F21            6.7082    -2.7442     2.1618 F       
  22 C22           -2.1108     2.4143     0.8753 C.3     
  23 F23            5.4291    -4.4716     0.4676 F       
  24 N24            4.7894     5.2128    -0.2224 N.pl3   
  25 C25            5.7115     4.1672    -0.6726 C.3     
  26 C26            7.0777     4.7870    -0.9732 C.3     
  27 H27            0.9770    -2.3475     0.2235 H       
  28 H28            3.0422    -0.1330     2.0628 H       
  29 H29            5.3249    -0.6361     2.8317 H       
  30 H30            3.0144    -3.7528    -0.2137 H       
  31 H31           -0.7917     3.3869    -0.5228 H       
  32 H32           -0.1294     4.0995     1.0475 H       
  33 H33            0.7587     6.3871     1.1718 H       
  34 H34            3.7318     2.7955    -0.3110 H       
  35 H35           -2.2157     1.0010    -1.3648 H       
  36 H36           -1.5783     2.7861     1.7507 H       
  37 H37           -2.9512     3.0725     0.6547 H       
  38 H38           -2.4799     1.4083     1.0747 H       
  39 H39            5.0928     6.1318    -0.1571 H       
  40 H40            5.8178     3.4152     0.1092 H       
  41 H41            5.3180     3.6998    -1.5753 H       
  42 H42            7.4712     5.2544    -0.0706 H       
  43 H43            7.7638     4.0090    -1.3082 H       
  44 H44            6.9715     5.5390    -1.7551 H       
@<TRIPOS>BOND
   1    1    2 1
   2    1    5 1
   3    1   14 1
   4    2    3 2
   5    3    4 1
   6    3    6 1
   7    4    5 2
   8    5   13 1
   9    6    7 1
  10    6   27 1
  11    7    8 ar
  12    7   12 ar
  13    8    9 ar
  14    8   28 1
  15    9   10 ar
  16    9   29 1
  17   10   11 ar
  18   10   21 1
  19   11   12 ar
  20   11   23 1
  21   12   30 1
  22   13   15 ar
  23   13   19 ar
  24   14   20 1
  25   14   22 1
  26   14   31 1
  27   15   16 ar
  28   15   32 1
  29   16   17 ar
  30   16   33 1
  31   17   18 ar
  32   18   19 ar
  33   18   24 1
  34   19   34 1
  35   20   35 1
  36   22   36 1
  37   22   37 1
  38   22   38 1
  39   24   25 1
  40   24   39 1
  41   25   26 1
  42   25   40 1
  43   25   41 1
  44   26   42 1
  45   26   43 1
  46   26   44 1

#	End of record

