#	Name: ASD01815845
#	Creating user name:	WinNT
#	Creation time:	15. 06. 2019 19:34

#	Modifying user name:	WinNT
#	Modification time:	15. 06. 2019 19:34

#	Program:	/corina/corina34_cracker 3.40 0067  02.08.2006

@<TRIPOS>MOLECULE
ASD01815845
  59   64    0    0    0
SMALL
NO_CHARGES


@<TRIPOS>ATOM
   1 C1            -0.0168     1.3869     0.0097 C.ar    
   2 C2             0.0021    -0.0041     0.0020 C.ar    
   3 C3             1.1801    -0.6897    -0.0129 C.ar    
   4 C4             2.3948     0.0129    -0.0207 C.ar    
   5 C5             2.3717     1.4290    -0.0129 C.ar    
   6 C6             1.1455     2.1015     0.0024 C.ar    
   7 C7             3.6293    -0.6694    -0.0365 C.ar    
   8 C8             4.8031     0.0063    -0.0446 C.ar    
   9 C9             4.8359     1.4095    -0.0374 C.ar    
  10 C10            3.6406     2.1511    -0.0211 C.ar    
  11 C11            6.1026     2.1526    -0.0470 C.2     
  12 N12            6.0328     3.5041    -0.0399 N.am    
  13 C13            4.8302     4.1313    -0.0241 C.2     
  14 N14            3.6961     3.4935    -0.0158 N.2     
  15 C15            7.2655     4.2957    -0.0490 C.3     
  16 C16            7.2938     5.1857    -1.2953 C.3     
  17 C17            7.3143     5.1822     1.1993 C.3     
  18 C18            8.5657     6.0622     1.1420 C.3     
  19 O19            8.5443     6.8411    -0.0559 O.3     
  20 C20            8.5460     6.0656    -1.2562 C.3     
  21 O21            7.1745     1.5748    -0.0604 O.2     
  22 C22            3.6424    -2.1763    -0.0442 C.3     
  23 C23            3.5087    -2.6726    -1.4608 C.ar    
  24 O24            7.3616     4.3602     2.3672 O.3     
  25 C25            2.2664    -3.0159    -1.9797 C.ar    
  26 C26            2.1874    -3.4655    -3.2828 C.ar    
  27 N27            3.2649    -3.5753    -4.0323 N.ar    
  28 C28            4.4753    -3.2618    -3.5768 C.ar    
  29 C29            4.6161    -2.7913    -2.2748 C.ar    
  30 N30            5.7127    -3.3299    -4.2165 N.3     
  31 C31            6.6611    -2.4754    -3.4696 C.3     
  32 C32            6.0828    -2.4991    -2.0368 C.3     
  33 C33            5.6060    -2.8988    -5.6167 C.3     
  34 H34           -0.9630     1.9076     0.0169 H       
  35 H35           -0.9305    -0.5488     0.0083 H       
  36 H36            1.1786    -1.7697    -0.0183 H       
  37 H37            1.1188     3.1811     0.0081 H       
  38 H38            5.7317    -0.5451    -0.0563 H       
  39 H39            4.8132     5.2111    -0.0182 H       
  40 H40            8.1273     3.6284    -0.0578 H       
  41 H41            7.3151     4.5613    -2.1884 H       
  42 H42            6.4054     5.8170    -1.3123 H       
  43 H43            6.4263     5.8134     1.2327 H       
  44 H44            8.5835     6.7256     2.0067 H       
  45 H45            9.4545     5.4312     1.1495 H       
  46 H46            9.4345     5.4346    -1.2801 H       
  47 H47            8.5495     6.7314    -2.1192 H       
  48 H48            4.5813    -2.5336     0.3789 H       
  49 H49            2.8098    -2.5499     0.5518 H       
  50 H50            7.3941     4.8565     3.1965 H       
  51 H51            1.3766    -2.9327    -1.3732 H       
  52 H52            1.2253    -3.7322    -3.6946 H       
  53 H53            7.6643    -2.9012    -3.4906 H       
  54 H54            6.6623    -1.4603    -3.8667 H       
  55 H55            6.2106    -1.5311    -1.5524 H       
  56 H56            6.5438    -3.2914    -1.4471 H       
  57 H57            5.2475    -1.8701    -5.6539 H       
  58 H58            6.5854    -2.9595    -6.0912 H       
  59 H59            4.9060    -3.5468    -6.1440 H       
@<TRIPOS>BOND
   1    1    2 ar
   2    1    6 ar
   3    1   34 1
   4    2    3 ar
   5    2   35 1
   6    3    4 ar
   7    3   36 1
   8    4    5 ar
   9    4    7 ar
  10    5    6 ar
  11    5   10 ar
  12    6   37 1
  13    7    8 ar
  14    7   22 1
  15    8    9 ar
  16    8   38 1
  17    9   10 ar
  18    9   11 1
  19   10   14 1
  20   11   12 am
  21   11   21 2
  22   12   13 1
  23   12   15 1
  24   13   14 2
  25   13   39 1
  26   15   16 1
  27   15   17 1
  28   15   40 1
  29   16   20 1
  30   16   41 1
  31   16   42 1
  32   17   18 1
  33   17   24 1
  34   17   43 1
  35   18   19 1
  36   18   44 1
  37   18   45 1
  38   19   20 1
  39   20   46 1
  40   20   47 1
  41   22   23 1
  42   22   48 1
  43   22   49 1
  44   23   25 ar
  45   23   29 ar
  46   24   50 1
  47   25   26 ar
  48   25   51 1
  49   26   27 ar
  50   26   52 1
  51   27   28 ar
  52   28   29 ar
  53   28   30 1
  54   29   32 1
  55   30   31 1
  56   30   33 1
  57   31   32 1
  58   31   53 1
  59   31   54 1
  60   32   55 1
  61   32   56 1
  62   33   57 1
  63   33   58 1
  64   33   59 1

#	End of record

