#	Name: ASD03092154
#	Creating user name:	WinNT
#	Creation time:	15. 06. 2019 20:32

#	Modifying user name:	WinNT
#	Modification time:	15. 06. 2019 20:32

#	Program:	/corina/corina34_cracker 3.40 0067  02.08.2006

@<TRIPOS>MOLECULE
ASD03092154
  53   55    0    0    0
SMALL
NO_CHARGES


@<TRIPOS>ATOM
   1 N1            -0.0562     1.2466    -0.2926 N.pl3   
   2 C2            -0.2393    -0.0078     0.2093 C.2     
   3 C3            -1.5840    -0.1984     0.3540 C.2     
   4 C4            -2.2301     0.9693    -0.0708 C.2     
   5 N5            -1.3178     1.8339    -0.4510 N.2     
   6 N6            -3.6141     1.1814    -0.0822 N.pl3   
   7 C7            -4.1257     2.4364    -0.4208 C.ar    
   8 C8            -5.3998     2.5453    -0.9628 C.ar    
   9 C9            -5.9028     3.7888    -1.2967 C.ar    
  10 C10           -5.1380     4.9237    -1.0914 C.ar    
  11 C11           -3.3631     3.5789    -0.2108 C.ar    
  12 C12            0.8234    -0.9835     0.5365 C.ar    
  13 C13            1.2316     1.8713    -0.6048 C.3     
  14 C14            2.0911    -0.8891    -0.0483 C.ar    
  15 C15            3.0526    -1.8200     0.2857 C.ar    
  16 N16            2.7896    -2.7880     1.1428 N.ar    
  17 C17            1.6080    -2.9131     1.7168 C.ar    
  18 C18            0.5905    -2.0231     1.4443 C.ar    
  19 C19           -3.8689     4.8176    -0.5523 C.ar    
  20 Cl20          -7.4950     3.9269    -1.9748 Cl      
  21 C21            1.5305     1.7059    -2.0962 C.3     
  22 C22            1.3689    -4.0408     2.6875 C.3     
  23 O23            0.0277    -3.9725     3.1760 O.3     
  24 C24            2.8664     2.3274    -2.4127 C.2     
  25 N25            3.3398     2.3012    -3.6743 N.am    
  26 O26            3.5155     2.8511    -1.5322 O.2     
  27 C27            4.6384     2.9054    -3.9821 C.3     
  28 C28            2.5558     1.6686    -4.7380 C.3     
  29 C29           -0.3043    -5.0030     4.1088 C.3     
  30 H30           -2.0636    -1.0904     0.7290 H       
  31 H31           -4.2176     0.4568     0.1452 H       
  32 H32           -5.9967     1.6597    -1.1234 H       
  33 H33           -5.5329     5.8943    -1.3530 H       
  34 H34           -2.3738     3.4977     0.2146 H       
  35 H35            1.1900     2.9322    -0.3581 H       
  36 H36            2.0183     1.3932    -0.0213 H       
  37 H37            2.3132    -0.0996    -0.7510 H       
  38 H38            4.0340    -1.7559    -0.1606 H       
  39 H39           -0.3741    -2.1316     1.9178 H       
  40 H40           -3.2743     5.7052    -0.3939 H       
  41 H41            1.5548     0.6453    -2.3464 H       
  42 H42            0.7529     2.1991    -2.6795 H       
  43 H43            1.5234    -4.9941     2.1821 H       
  44 H44            2.0644    -3.9552     3.5223 H       
  45 H45            5.4235     2.1582    -3.8661 H       
  46 H46            4.6345     3.2720    -5.0086 H       
  47 H47            4.8236     3.7357    -3.3005 H       
  48 H48            1.6269     1.2785    -4.3217 H       
  49 H49            2.3276     2.4052    -5.5083 H       
  50 H50            3.1294     0.8514    -5.1752 H       
  51 H51           -0.1845    -5.9762     3.6329 H       
  52 H52            0.3565    -4.9373     4.9731 H       
  53 H53           -1.3382    -4.8813     4.4318 H       
@<TRIPOS>BOND
   1    1    2 1
   2    1   13 1
   3    1    5 1
   4    2    3 2
   5    2   12 1
   6    3    4 1
   7    3   30 1
   8    4    5 2
   9    4    6 1
  10    6    7 1
  11    6   31 1
  12    7    8 ar
  13    7   11 ar
  14    8    9 ar
  15    8   32 1
  16    9   10 ar
  17    9   20 1
  18   10   19 ar
  19   10   33 1
  20   11   19 ar
  21   11   34 1
  22   12   14 ar
  23   12   18 ar
  24   13   21 1
  25   13   35 1
  26   13   36 1
  27   14   15 ar
  28   14   37 1
  29   15   16 ar
  30   15   38 1
  31   16   17 ar
  32   17   18 ar
  33   17   22 1
  34   18   39 1
  35   19   40 1
  36   21   24 1
  37   21   41 1
  38   21   42 1
  39   22   23 1
  40   22   43 1
  41   22   44 1
  42   23   29 1
  43   24   25 am
  44   24   26 2
  45   25   27 1
  46   25   28 1
  47   27   45 1
  48   27   46 1
  49   27   47 1
  50   28   48 1
  51   28   49 1
  52   28   50 1
  53   29   51 1
  54   29   52 1
  55   29   53 1

#	End of record

