#	Name: ASD01912730
#	Creating user name:	WinNT
#	Creation time:	15. 06. 2019 20:00

#	Modifying user name:	WinNT
#	Modification time:	15. 06. 2019 20:00

#	Program:	/corina/corina34_cracker 3.40 0067  02.08.2006

@<TRIPOS>MOLECULE
ASD01912730
  45   48    0    0    0
SMALL
NO_CHARGES


@<TRIPOS>ATOM
   1 C1            -0.0165     1.3669     0.0096 C.2     
   2 N2             0.0021    -0.0041     0.0020 N.pl3   
   3 C3            -1.2024    -0.6922     0.0098 C.2     
   4 C4            -2.3629    -0.0503     0.0239 C.2     
   5 N5            -2.4359     1.3310     0.0320 N.am    
   6 C6            -1.3019     2.0669     0.0309 C.2     
   7 C7             1.3014     1.7837    -0.0008 C.2     
   8 C8             2.0550     0.6110    -0.0143 C.2     
   9 N9             1.2244    -0.4045    -0.0118 N.2     
  10 O10           -1.3487     3.2837     0.0379 O.2     
  11 C11           -3.6763     1.9629     0.0468 C.ar    
  12 C12            3.5595     0.5249    -0.0295 C.3     
  13 O13            4.1120     1.8427    -0.0282 O.3     
  14 C14            5.4672     1.9435    -0.0410 C.ar    
  15 C15            6.0712     3.1925    -0.0405 C.ar    
  16 C16            7.4489     3.2922    -0.0536 C.ar    
  17 C17            8.2259     2.1486    -0.0672 C.ar    
  18 C18            7.6265     0.9027    -0.0682 C.ar    
  19 C19            6.2492     0.7975    -0.0489 C.ar    
  20 N20           -3.7253     3.2848     0.0544 N.ar    
  21 C21           -4.8862     3.9235     0.0681 C.ar    
  22 C22           -5.9737     1.7936     0.0609 C.ar    
  23 N23           -4.7756     1.2246     0.0475 N.ar    
  24 C24           -6.0615     3.1893     0.0744 C.ar    
  25 O25           -7.2716     3.8113     0.0884 O.3     
  26 C26           -7.2665     5.2403     0.0960 C.3     
  27 O27           -7.0966     1.0334     0.0611 O.3     
  28 C28           -6.9200    -0.3846     0.0463 C.3     
  29 H29           -1.1950    -1.7722     0.0039 H       
  30 H30           -3.2784    -0.6232     0.0288 H       
  31 H31            1.6684     2.7994     0.0008 H       
  32 H32            3.9016    -0.0135     0.8543 H       
  33 H33            3.8840    -0.0043    -0.9255 H       
  34 H34            5.4647     4.0860    -0.0302 H       
  35 H35            7.9195     4.2643    -0.0536 H       
  36 H36            9.3029     2.2287    -0.0775 H       
  37 H37            8.2356     0.0109    -0.0796 H       
  38 H38            5.7814    -0.1759    -0.0497 H       
  39 H39           -4.9161     5.0031     0.0745 H       
  40 H40           -6.7592     5.6065    -0.7965 H       
  41 H41           -8.2928     5.6072     0.1070 H       
  42 H42           -6.7436     5.5970     0.9834 H       
  43 H43           -7.8949    -0.8721     0.0481 H       
  44 H44           -6.3712    -0.6731    -0.8502 H       
  45 H45           -6.3593    -0.6902     0.9297 H       
@<TRIPOS>BOND
   1    1    2 1
   2    1    7 2
   3    1    6 1
   4    2    3 1
   5    2    9 1
   6    3    4 2
   7    3   29 1
   8    4    5 1
   9    4   30 1
  10    5    6 am
  11    5   11 1
  12    6   10 2
  13    7    8 1
  14    7   31 1
  15    8    9 2
  16    8   12 1
  17   11   20 ar
  18   11   23 ar
  19   12   13 1
  20   12   32 1
  21   12   33 1
  22   13   14 1
  23   14   15 ar
  24   14   19 ar
  25   15   16 ar
  26   15   34 1
  27   16   17 ar
  28   16   35 1
  29   17   18 ar
  30   17   36 1
  31   18   19 ar
  32   18   37 1
  33   19   38 1
  34   20   21 ar
  35   21   24 ar
  36   21   39 1
  37   22   23 ar
  38   22   27 1
  39   22   24 ar
  40   24   25 1
  41   25   26 1
  42   26   40 1
  43   26   41 1
  44   26   42 1
  45   27   28 1
  46   28   43 1
  47   28   44 1
  48   28   45 1

#	End of record

