#	Name: ASD01813948
#	Creating user name:	WinNT
#	Creation time:	15. 06. 2019 19:31

#	Modifying user name:	WinNT
#	Modification time:	15. 06. 2019 19:31

#	Program:	/corina/corina34_cracker 3.40 0067  02.08.2006

@<TRIPOS>MOLECULE
ASD01813948
  53   57    0    0    0
SMALL
NO_CHARGES


@<TRIPOS>ATOM
   1 C1             1.8262     2.5848    -1.6078 C.2     
   2 C2             1.4558     1.3004    -1.1873 C.2     
   3 C3             2.4147     0.3430    -1.0294 C.2     
   4 C4             3.7578     0.6611    -1.2910 C.2     
   5 N5             4.0913     1.9237    -1.7001 N.am    
   6 C6             3.1242     2.8723    -1.8548 C.2     
   7 C7             4.7452    -0.3210    -1.1293 C.2     
   8 C8             6.0529    -0.0223    -1.3804 C.2     
   9 C9             6.3921     1.2769    -1.8014 C.2     
  10 C10            5.3764     2.2427    -1.9543 C.2     
  11 O11            5.6612     3.3709    -2.3191 O.2     
  12 C12            7.7882     1.6233    -2.0769 C.2     
  13 O13            8.1068     2.8705    -2.4802 O.3     
  14 O14            8.6605     0.7862    -1.9422 O.2     
  15 C15            4.3624    -1.7068    -0.6776 C.3     
  16 N16            4.1883    -2.5736    -1.8508 N.3     
  17 C17            4.1702    -3.9857    -1.4621 C.3     
  18 C18            4.4326    -4.8666    -2.6884 C.3     
  19 S19            3.0959    -4.5942    -3.8916 S.3     
  20 C20            3.0779    -2.7804    -4.0287 C.3     
  21 C21            3.0021    -2.1867    -2.6179 C.3     
  22 C22            5.2388    -4.2344    -0.4291 C.ar    
  23 C23            4.9834    -5.0834     0.6609 C.ar    
  24 C24            6.0010    -5.3051     1.6224 C.ar    
  25 C25            7.2457    -4.6723     1.4665 C.ar    
  26 C26            7.4575    -3.8569     0.3972 C.ar    
  27 C27            6.4585    -3.6420    -0.5500 C.ar    
  28 C28            3.7385    -5.7168     0.8167 C.ar    
  29 C29            3.5271    -6.5323     1.8855 C.ar    
  30 C30            4.5276    -6.7500     2.8312 C.ar    
  31 C31            5.7453    -6.1541     2.7129 C.ar    
  32 H32            1.0719     3.3465    -1.7393 H       
  33 H33            0.4193     1.0703    -0.9896 H       
  34 H34            2.1437    -0.6511    -0.7056 H       
  35 H35            3.3984     3.8656    -2.1782 H       
  36 H36            6.8185    -0.7740    -1.2571 H       
  37 H37            9.0413     3.0517    -2.6499 H       
  38 H38            5.1487    -2.1115    -0.0404 H       
  39 H39            3.4283    -1.6614    -0.1177 H       
  40 H40            3.1959    -4.2327    -1.0404 H       
  41 H41            5.3889    -4.5959    -3.1359 H       
  42 H42            4.4484    -5.9147    -2.3897 H       
  43 H43            3.9898    -2.4413    -4.5202 H       
  44 H44            2.2086    -2.4654    -4.6058 H       
  45 H45            2.1090    -2.5587    -2.1160 H       
  46 H46            2.9525    -1.0999    -2.6846 H       
  47 H47            8.0303    -4.8316     2.1914 H       
  48 H48            8.4150    -3.3714     0.2799 H       
  49 H49            6.6525    -2.9906    -1.3893 H       
  50 H50            2.9536    -5.5570     0.0923 H       
  51 H51            2.5695    -7.0178     2.0029 H       
  52 H52            4.3335    -7.4014     3.6705 H       
  53 H53            6.5111    -6.3324     3.4533 H       
@<TRIPOS>BOND
   1    1    2 1
   2    1    6 2
   3    1   32 1
   4    2    3 2
   5    2   33 1
   6    3    4 1
   7    3   34 1
   8    4    5 1
   9    4    7 2
  10    5    6 1
  11    5   10 am
  12    6   35 1
  13    7    8 1
  14    7   15 1
  15    8    9 2
  16    8   36 1
  17    9   10 1
  18    9   12 1
  19   10   11 2
  20   12   13 1
  21   12   14 2
  22   13   37 1
  23   15   16 1
  24   15   38 1
  25   15   39 1
  26   16   17 1
  27   16   21 1
  28   17   18 1
  29   17   22 1
  30   17   40 1
  31   18   19 1
  32   18   41 1
  33   18   42 1
  34   19   20 1
  35   20   21 1
  36   20   43 1
  37   20   44 1
  38   21   45 1
  39   21   46 1
  40   22   23 ar
  41   22   27 ar
  42   23   24 ar
  43   23   28 ar
  44   24   25 ar
  45   24   31 ar
  46   25   26 ar
  47   25   47 1
  48   26   27 ar
  49   26   48 1
  50   27   49 1
  51   28   29 ar
  52   28   50 1
  53   29   30 ar
  54   29   51 1
  55   30   31 ar
  56   30   52 1
  57   31   53 1

#	End of record

