#	Name: ASD01912696
#	Creating user name:	WinNT
#	Creation time:	15. 06. 2019 20:00

#	Modifying user name:	WinNT
#	Modification time:	15. 06. 2019 20:00

#	Program:	/corina/corina34_cracker 3.40 0067  02.08.2006

@<TRIPOS>MOLECULE
ASD01912696
  42   45    0    0    0
SMALL
NO_CHARGES


@<TRIPOS>ATOM
   1 C1            -0.0165     1.3669     0.0096 C.2     
   2 N2             0.0021    -0.0041     0.0020 N.pl3   
   3 C3            -1.2023    -0.6921     0.0094 C.2     
   4 C4            -2.3629    -0.0498     0.0231 C.2     
   5 N5            -2.4359     1.3308     0.0312 N.am    
   6 C6            -1.3019     2.0668     0.0309 C.2     
   7 C7             1.3015     1.7836    -0.0008 C.2     
   8 C8             2.0550     0.6110    -0.0143 C.2     
   9 N9             1.2244    -0.4045    -0.0118 N.2     
  10 O10           -1.3488     3.2837     0.0383 O.2     
  11 C11           -3.6794     1.9642     0.0451 C.ar    
  12 C12            3.5595     0.5249    -0.0298 C.3     
  13 O13            4.1120     1.8428    -0.0288 O.3     
  14 C14            5.4672     1.9435    -0.0419 C.ar    
  15 C15            6.0711     3.1925    -0.0417 C.ar    
  16 C16            7.4489     3.2923    -0.0551 C.ar    
  17 C17            8.2259     2.1487    -0.0688 C.ar    
  18 C18            7.6265     0.9027    -0.0694 C.ar    
  19 C19            6.2492     0.7976    -0.0498 C.ar    
  20 C20           -4.8357     1.2042     0.1558 C.ar    
  21 C21           -6.0665     1.8417     0.1688 C.ar    
  22 C22           -4.9002     3.9244    -0.0327 C.ar    
  23 N23           -3.7430     3.2845    -0.0422 N.ar    
  24 C24           -6.0973     3.2245     0.0700 C.ar    
  25 F25           -7.2762     3.8842     0.0784 F       
  26 O26           -4.9197     5.2784    -0.1238 O.3     
  27 C27           -3.6572     5.9399    -0.2265 C.3     
  28 H28           -1.1950    -1.7720     0.0035 H       
  29 H29           -3.2785    -0.6227     0.0277 H       
  30 H30            1.6684     2.7994     0.0008 H       
  31 H31            3.9018    -0.0133     0.8540 H       
  32 H32            3.8838    -0.0044    -0.9258 H       
  33 H33            5.4646     4.0861    -0.0314 H       
  34 H34            7.9195     4.2644    -0.0553 H       
  35 H35            9.3029     2.2288    -0.0792 H       
  36 H36            8.2356     0.0110    -0.0808 H       
  37 H37            5.7814    -0.1759    -0.0503 H       
  38 H38           -4.7771     0.1284     0.2307 H       
  39 H39           -6.9813     1.2740     0.2537 H       
  40 H40           -3.0560     5.7142     0.6542 H       
  41 H41           -3.1372     5.5937    -1.1198 H       
  42 H42           -3.8153     7.0164    -0.2925 H       
@<TRIPOS>BOND
   1    1    2 1
   2    1    7 2
   3    1    6 1
   4    2    3 1
   5    2    9 1
   6    3    4 2
   7    3   28 1
   8    4    5 1
   9    4   29 1
  10    5    6 am
  11    5   11 1
  12    6   10 2
  13    7    8 1
  14    7   30 1
  15    8    9 2
  16    8   12 1
  17   11   20 ar
  18   11   23 ar
  19   12   13 1
  20   12   31 1
  21   12   32 1
  22   13   14 1
  23   14   15 ar
  24   14   19 ar
  25   15   16 ar
  26   15   33 1
  27   16   17 ar
  28   16   34 1
  29   17   18 ar
  30   17   35 1
  31   18   19 ar
  32   18   36 1
  33   19   37 1
  34   20   21 ar
  35   20   38 1
  36   21   24 ar
  37   21   39 1
  38   22   23 ar
  39   22   26 1
  40   22   24 ar
  41   24   25 1
  42   26   27 1
  43   27   40 1
  44   27   41 1
  45   27   42 1

#	End of record

