#	Name: ASD01140534
#	Creating user name:	WinNT
#	Creation time:	15. 06. 2019 19:01

#	Modifying user name:	WinNT
#	Modification time:	15. 06. 2019 19:01

#	Program:	/corina/corina34_cracker 3.40 0067  02.08.2006

@<TRIPOS>MOLECULE
ASD01140534
  54   57    0    0    0
SMALL
NO_CHARGES


@<TRIPOS>ATOM
   1 C1            -0.0315     1.5262    -0.0015 C.3     
   2 C2            -0.0115    -0.0036    -0.0104 C.3     
   3 C3             0.7264    -0.5119     1.2297 C.3     
   4 C4             2.1619     0.0177     1.2219 C.3     
   5 C5             2.1404     1.5474     1.2335 C.3     
   6 C6             1.4036     2.0560    -0.0074 C.3     
   7 C7             2.1254     1.5669    -1.2635 C.3     
   8 C8             3.5748     2.0788     1.2312 C.3     
   9 C9             4.2970     1.6001    -0.0297 C.3     
  10 C10            3.5603     2.1174    -1.2664 C.3     
  11 C11            2.1069     1.6073    -3.7932 C.3     
  12 C12            1.3575     1.9979    -2.5083 C.3     
  13 C13            3.4788     2.2480    -3.7293 C.3     
  14 C14            4.3966     2.0036    -4.8906 C.2     
  15 C15            4.2338     1.6139    -2.5295 C.3     
  16 C16            5.6595     2.1242    -2.7728 C.3     
  17 C17            5.8081     1.9849    -4.3127 C.3     
  18 C18            1.3822     3.5858     0.0038 C.3     
  19 C19            3.3333     3.7547    -3.5070 C.3     
  20 C20            0.0082    -0.0199     2.4879 C.3     
  21 O21            0.7458    -1.9407     1.2202 O.3     
  22 H22            3.5369     3.2070    -1.2522 H       
  23 H23            1.6266     1.8964     2.1292 H       
  24 H24            2.1654     0.4778    -1.2457 H       
  25 H25            4.1884     0.5260    -2.5784 H       
  26 O26            4.0822     1.8526    -6.0467 O.2     
  27 H27           -0.5558     1.8877    -0.8861 H       
  28 H28           -0.5447     1.8776     0.8936 H       
  29 H29           -1.0343    -0.3803    -0.0043 H       
  30 H30            0.4996    -0.3550    -0.9067 H       
  31 H31            2.6880    -0.3451     2.1049 H       
  32 H32            2.6733    -0.3318     0.3249 H       
  33 H33            3.5582     3.1686     1.2485 H       
  34 H34            4.0999     1.7101     2.1124 H       
  35 H35            5.3185     1.9803    -0.0299 H       
  36 H36            4.3148     0.5104    -0.0467 H       
  37 H37            2.2063     0.5233    -3.8493 H       
  38 H38            1.5658     1.9762    -4.6646 H       
  39 H39            0.3785     1.5189    -2.5069 H       
  40 H40            1.2241     3.0795    -2.4882 H       
  41 H41            5.7552     3.1662    -2.4674 H       
  42 H42            6.3878     1.4997    -2.2555 H       
  43 H43            6.2990     1.0427    -4.5566 H       
  44 H44            6.3850     2.8204    -4.7092 H       
  45 H45            0.8694     3.9354     0.8999 H       
  46 H46            2.4047     3.9635    -0.0004 H       
  47 H47            0.8573     3.9483    -0.8800 H       
  48 H48            2.7327     3.9341    -2.6152 H       
  49 H49            4.3197     4.1997    -3.3762 H       
  50 H50            2.8437     4.2039    -4.3711 H       
  51 H51           -1.0144    -0.3972     2.4936 H       
  52 H52            0.5340    -0.3820     3.3714 H       
  53 H53           -0.0065     1.0700     2.4952 H       
  54 H54           -0.1322    -2.3460     1.2245 H       
@<TRIPOS>BOND
   1    1    2 1
   2    1    6 1
   3    1   27 1
   4    1   28 1
   5    2    3 1
   6    2   29 1
   7    2   30 1
   8    3    4 1
   9    3   20 1
  10    3   21 1
  11    4    5 1
  12    4   31 1
  13    4   32 1
  14    5    6 1
  15    5    8 1
  16    5   23 1
  17    6    7 1
  18    6   18 1
  19    7   10 1
  20    7   24 1
  21    7   12 1
  22    8    9 1
  23    8   33 1
  24    8   34 1
  25    9   10 1
  26    9   35 1
  27    9   36 1
  28   10   15 1
  29   10   22 1
  30   11   12 1
  31   11   13 1
  32   11   37 1
  33   11   38 1
  34   12   39 1
  35   12   40 1
  36   13   15 1
  37   13   19 1
  38   13   14 1
  39   14   17 1
  40   14   26 2
  41   15   16 1
  42   15   25 1
  43   16   17 1
  44   16   41 1
  45   16   42 1
  46   17   43 1
  47   17   44 1
  48   18   45 1
  49   18   46 1
  50   18   47 1
  51   19   48 1
  52   19   49 1
  53   19   50 1
  54   20   51 1
  55   20   52 1
  56   20   53 1
  57   21   54 1

#	End of record

