#	Name: ASD04880299
#	Creating user name:	WinNT
#	Creation time:	15. 06. 2019 20:53

#	Modifying user name:	WinNT
#	Modification time:	15. 06. 2019 20:53

#	Program:	/corina/corina34_cracker 3.40 0067  02.08.2006

@<TRIPOS>MOLECULE
ASD04880299
  52   54    0    0    0
SMALL
NO_CHARGES


@<TRIPOS>ATOM
   1 N1            -0.0168     1.3892     0.0097 N.am    
   2 N2             0.0021    -0.0041     0.0020 N.2     
   3 C3             1.1846    -0.5144    -0.0120 C.2     
   4 C4             2.2131     0.5939    -0.0159 C.3     
   5 C5             1.3691     1.8838    -0.0009 C.3     
   6 C6            -1.1236     2.1582     0.0193 C.2     
   7 O7            -1.0220     3.3699     0.0249 O.2     
   8 N8            -2.3430     1.5841     0.0227 N.am    
   9 C9            -3.5461     2.4200     0.0332 C.3     
  10 C10           -4.7693     1.5398     0.0351 C.ar    
  11 C11           -5.3239     1.1302     1.2330 C.ar    
  12 C12           -6.4479     0.3220     1.2345 C.ar    
  13 C13           -7.0153    -0.0751     0.0353 C.ar    
  14 C14           -6.4591     0.3356    -1.1611 C.ar    
  15 C15           -5.3397     1.1471    -1.1612 C.ar    
  16 F16           -6.9905    -0.0793     2.4048 F       
  17 C17            1.6344     2.7155    -1.2574 C.3     
  18 C18            1.6584     2.7020     1.2592 C.3     
  19 C19            1.4885    -1.9572    -0.0227 C.ar    
  20 C20            0.4496    -2.8919    -0.0183 C.ar    
  21 C21            0.7400    -4.2430    -0.0288 C.ar    
  22 C22            2.0662    -4.6706    -0.0433 C.ar    
  23 C23            3.0974    -3.7433    -0.0471 C.ar    
  24 C24            2.8152    -2.3930    -0.0430 C.ar    
  25 O25            2.3498    -6.0001    -0.0531 O.3     
  26 C26            3.7304    -6.3688    -0.0678 C.3     
  27 O27           -0.2685    -5.1553    -0.0246 O.3     
  28 C28           -1.6037    -4.6463    -0.0091 C.3     
  29 H29            2.8400     0.5368     0.8740 H       
  30 H30            2.8229     0.5464    -0.9181 H       
  31 H31           -2.4241     0.6175     0.0182 H       
  32 H32           -3.5467     3.0448     0.9264 H       
  33 H33           -3.5559     3.0538    -0.8535 H       
  34 H34           -4.8803     1.4403     2.1677 H       
  35 H35           -7.8919    -0.7059     0.0352 H       
  36 H36           -6.9015     0.0259    -2.0964 H       
  37 H37           -4.9083     1.4712    -2.0968 H       
  38 H38            0.9729     3.5817    -1.2661 H       
  39 H39            2.6717     3.0504    -1.2591 H       
  40 H40            1.4477     2.1068    -2.1421 H       
  41 H41            1.4886     2.0838     2.1407 H       
  42 H42            2.6956     3.0370     1.2447 H       
  43 H43            0.9973     3.5680     1.2898 H       
  44 H44           -0.5778    -2.5592    -0.0064 H       
  45 H45            4.1239    -4.0791    -0.0580 H       
  46 H46            3.6202    -1.6730    -0.0509 H       
  47 H47            4.2059    -5.9613    -0.9599 H       
  48 H48            4.2221    -5.9710     0.8200 H       
  49 H49            3.8162    -7.4554    -0.0745 H       
  50 H50           -1.7685    -4.0316    -0.8940 H       
  51 H51           -2.3093    -5.4771    -0.0072 H       
  52 H52           -1.7518    -4.0419     0.8858 H       
@<TRIPOS>BOND
   1    1    2 1
   2    1    5 1
   3    1    6 am
   4    2    3 2
   5    3    4 1
   6    3   19 1
   7    4    5 1
   8    4   29 1
   9    4   30 1
  10    5   17 1
  11    5   18 1
  12    6    7 2
  13    6    8 am
  14    8    9 1
  15    8   31 1
  16    9   10 1
  17    9   32 1
  18    9   33 1
  19   10   11 ar
  20   10   15 ar
  21   11   12 ar
  22   11   34 1
  23   12   13 ar
  24   12   16 1
  25   13   14 ar
  26   13   35 1
  27   14   15 ar
  28   14   36 1
  29   15   37 1
  30   17   38 1
  31   17   39 1
  32   17   40 1
  33   18   41 1
  34   18   42 1
  35   18   43 1
  36   19   20 ar
  37   19   24 ar
  38   20   21 ar
  39   20   44 1
  40   21   22 ar
  41   21   27 1
  42   22   23 ar
  43   22   25 1
  44   23   24 ar
  45   23   45 1
  46   24   46 1
  47   25   26 1
  48   26   47 1
  49   26   48 1
  50   26   49 1
  51   27   28 1
  52   28   50 1
  53   28   51 1
  54   28   52 1

#	End of record

