#	Name: ASD05940062
#	Creating user name:	WinNT
#	Creation time:	15. 06. 2019 21:04

#	Modifying user name:	WinNT
#	Modification time:	15. 06. 2019 21:04

#	Program:	/corina/corina34_cracker 3.40 0067  02.08.2006

@<TRIPOS>MOLECULE
ASD05940062
  63   66    0    0    0
SMALL
NO_CHARGES


@<TRIPOS>ATOM
   1 N1            -0.0159     1.3182     0.0093 N.ar    
   2 C2             0.0021    -0.0041     0.0020 C.ar    
   3 N3             1.1319    -0.6930    -0.0105 N.ar    
   4 C4             2.3066    -0.0681    -0.0163 C.ar    
   5 C5             2.3274     1.3257    -0.0126 C.ar    
   6 C6             1.1197     2.0168     0.0022 C.ar    
   7 N7             3.5574     2.0049    -0.0281 N.am    
   8 N8             1.0977     3.4049     0.0098 N.pl3   
   9 O9            -1.1750    -0.6756     0.0081 O.3     
  10 C10           -2.3694     0.1089     0.0221 C.3     
  11 C11           -3.5875    -0.8168     0.0271 C.3     
  12 C12           -4.8663     0.0231     0.0422 C.3     
  13 C13           -6.0845    -0.9026     0.0472 C.3     
  14 N14            3.4912    -0.7844    -0.0204 N.3     
  15 C15            4.5325    -0.1235    -0.8134 C.3     
  16 C16            4.6626     1.3204    -0.4025 C.2     
  17 O17            5.7474     1.8633    -0.4070 O.2     
  18 C18            3.2721    -2.1615    -0.4823 C.3     
  19 C19            4.6224    -2.8434    -0.7117 C.3     
  20 C20            4.3942    -4.2778    -1.1928 C.3     
  21 C21            5.7394    -4.9206    -1.5417 C.3     
  22 C22            5.5106    -6.3737    -1.9639 C.3     
  23 N23            4.8668    -7.1079    -0.8672 N.3     
  24 C24            3.5521    -6.5376    -0.5463 C.3     
  25 C25            3.7224    -5.0894    -0.0817 C.3     
  26 C26            4.7571    -8.5381    -1.1841 C.3     
  27 C27            4.3166    -9.3048     0.0645 C.3     
  28 C28            4.0305   -10.8000    -0.0889 C.3     
  29 C29            5.2908   -10.3333     0.6422 C.3     
  30 H30            3.6127     2.9401     0.2234 H       
  31 H31            1.9299     3.9032     0.0049 H       
  32 H32            0.2501     3.8765     0.0201 H       
  33 H33           -2.3836     0.7330     0.9156 H       
  34 H34           -2.3983     0.7426    -0.8643 H       
  35 H35           -3.5733    -1.4409    -0.8664 H       
  36 H36           -3.5587    -1.4505     0.9135 H       
  37 H37           -4.8806     0.6473     0.9357 H       
  38 H38           -4.8952     0.6569    -0.8442 H       
  39 H39           -6.0556    -1.5363     0.9336 H       
  40 H40           -6.9955    -0.3042     0.0579 H       
  41 H41           -6.0702    -1.5267    -0.8463 H       
  42 H42            5.4839    -0.6312    -0.6548 H       
  43 H43            4.2696    -0.1760    -1.8699 H       
  44 H44            2.7102    -2.7126     0.2718 H       
  45 H45            2.7095    -2.1464    -1.4158 H       
  46 H46            5.1843    -2.2923    -1.4657 H       
  47 H47            5.1850    -2.8585     0.2218 H       
  48 H48            3.7550    -4.2685    -2.0757 H       
  49 H49            6.2030    -4.3721    -2.3616 H       
  50 H50            6.3927    -4.8936    -0.6696 H       
  51 H51            4.8684    -6.3993    -2.8443 H       
  52 H52            6.4680    -6.8385    -2.1993 H       
  53 H53            2.9192    -6.5624    -1.4333 H       
  54 H54            3.0871    -7.1215     0.2480 H       
  55 H55            4.3440    -5.0651     0.8134 H       
  56 H56            2.7451    -4.6615     0.1415 H       
  57 H57            4.0212    -8.6794    -1.9757 H       
  58 H58            5.7253    -8.9117    -1.5172 H       
  59 H59            3.7007    -8.7441     0.7676 H       
  60 H60            3.2266   -11.2230     0.5135 H       
  61 H61            4.1561   -11.2374    -1.0794 H       
  62 H62            6.2456   -10.4637     0.1328 H       
  63 H63            5.3162   -10.4493     1.7258 H       
@<TRIPOS>BOND
   1    1    2 ar
   2    1    6 ar
   3    2    3 ar
   4    2    9 1
   5    3    4 ar
   6    4    5 ar
   7    4   14 1
   8    5    6 ar
   9    5    7 1
  10    6    8 1
  11    7   16 am
  12    7   30 1
  13    8   31 1
  14    8   32 1
  15    9   10 1
  16   10   11 1
  17   10   33 1
  18   10   34 1
  19   11   12 1
  20   11   35 1
  21   11   36 1
  22   12   13 1
  23   12   37 1
  24   12   38 1
  25   13   39 1
  26   13   40 1
  27   13   41 1
  28   14   15 1
  29   14   18 1
  30   15   16 1
  31   15   42 1
  32   15   43 1
  33   16   17 2
  34   18   19 1
  35   18   44 1
  36   18   45 1
  37   19   20 1
  38   19   46 1
  39   19   47 1
  40   20   21 1
  41   20   25 1
  42   20   48 1
  43   21   22 1
  44   21   49 1
  45   21   50 1
  46   22   23 1
  47   22   51 1
  48   22   52 1
  49   23   24 1
  50   23   26 1
  51   24   25 1
  52   24   53 1
  53   24   54 1
  54   25   55 1
  55   25   56 1
  56   26   27 1
  57   26   57 1
  58   26   58 1
  59   27   28 1
  60   27   29 1
  61   27   59 1
  62   28   29 1
  63   28   60 1
  64   28   61 1
  65   29   62 1
  66   29   63 1

#	End of record

