#	Name: ASD01870311
#	Creating user name:	WinNT
#	Creation time:	15. 06. 2019 19:39

#	Modifying user name:	WinNT
#	Modification time:	15. 06. 2019 19:39

#	Program:	/corina/corina34_cracker 3.40 0067  02.08.2006

@<TRIPOS>MOLECULE
ASD01870311
  33   36    0    0    0
SMALL
NO_CHARGES


@<TRIPOS>ATOM
   1 C1            -0.0184     1.5028     0.0103 C.3     
   2 C2             0.0021    -0.0041     0.0020 C.2     
   3 N3            -1.1558    -0.6938     0.0094 N.am    
   4 O4             1.0604    -0.5961    -0.0113 O.2     
   5 C5            -1.1370    -2.0801     0.0017 C.2     
   6 O6            -2.2161    -2.8780     0.0078 O.3     
   7 C7            -1.7824    -4.1566    -0.0037 C.2     
   8 C8            -0.4411    -4.1218    -0.0167 C.2     
   9 N9            -0.0634    -2.8297    -0.0183 N.2     
  10 C10            1.3912     2.0415    -0.0003 C.ar    
  11 C11            1.5411     2.8015    -1.1573 C.ar    
  12 C12            0.2712     2.7885    -1.9249 C.ar    
  13 C13           -0.6721     2.0204    -1.2474 C.ar    
  14 C14           -0.0784     3.3920    -3.1340 C.ar    
  15 C15           -1.3485     3.2240    -3.6459 C.ar    
  16 C16           -2.2786     2.4593    -2.9657 C.ar    
  17 C17           -1.9388     1.8577    -1.7666 C.ar    
  18 C18            2.7652     3.4204    -1.4157 C.ar    
  19 C19            3.8115     3.2755    -0.5282 C.ar    
  20 C20            3.6529     2.5186     0.6184 C.ar    
  21 C21            2.4419     1.9025     0.8812 C.ar    
  22 H22           -0.5522     1.8656     0.8886 H       
  23 H23           -2.0023    -0.2203     0.0200 H       
  24 H24           -2.4002    -5.0424    -0.0027 H       
  25 H25            0.2177    -4.9775    -0.0280 H       
  26 H26            0.6447     3.9903    -3.6682 H       
  27 H27           -1.6176     3.6919    -4.5814 H       
  28 H28           -3.2715     2.3314    -3.3708 H       
  29 H29           -2.6665     1.2608    -1.2370 H       
  30 H30            2.8932     4.0126    -2.3097 H       
  31 H31            4.7581     3.7547    -0.7297 H       
  32 H32            4.4752     2.4085     1.3098 H       
  33 H33            2.3201     1.3119     1.7772 H       
@<TRIPOS>BOND
   1    1    2 1
   2    1   10 1
   3    1   13 1
   4    1   22 1
   5    2    3 am
   6    2    4 2
   7    3    5 1
   8    3   23 1
   9    5    6 1
  10    5    9 2
  11    6    7 1
  12    7    8 2
  13    7   24 1
  14    8    9 1
  15    8   25 1
  16   10   21 ar
  17   10   11 ar
  18   11   12 1
  19   11   18 ar
  20   12   14 ar
  21   12   13 ar
  22   13   17 ar
  23   14   15 ar
  24   14   26 1
  25   15   16 ar
  26   15   27 1
  27   16   17 ar
  28   16   28 1
  29   17   29 1
  30   18   19 ar
  31   18   30 1
  32   19   20 ar
  33   19   31 1
  34   20   21 ar
  35   20   32 1
  36   21   33 1

#	End of record

