#	Name: ASD01815925
#	Creating user name:	WinNT
#	Creation time:	15. 06. 2019 19:34

#	Modifying user name:	WinNT
#	Modification time:	15. 06. 2019 19:34

#	Program:	/corina/corina34_cracker 3.40 0067  02.08.2006

@<TRIPOS>MOLECULE
ASD01815925
  73   80    0    0    0
SMALL
NO_CHARGES


@<TRIPOS>ATOM
   1 C1             2.0844     0.0193    -2.2731 C.ar    
   2 C2             2.2977    -1.2795    -1.8415 C.ar    
   3 C3             3.3567    -1.5790    -1.0068 C.ar    
   4 C4             4.2231    -0.5719    -0.5902 C.ar    
   5 C5             4.0044     0.7439    -1.0293 C.ar    
   6 C6             2.9327     1.0336    -1.8712 C.ar    
   7 N7             5.2865    -0.8658     0.2472 N.pl3   
   8 C8             6.1532     0.0630     0.6812 C.2     
   9 C9             6.0397     1.3821     0.3180 C.2     
  10 C10            4.9342     1.7955    -0.5760 C.2     
  11 C11            6.7815     2.6075     0.5980 C.2     
  12 N12            6.1477     3.5928    -0.0739 N.am    
  13 N13            5.0483     3.0787    -0.7660 N.2     
  14 C14            6.5367     4.9374    -0.0763 C.ar    
  15 O15            7.7743     2.7194     1.2986 O.2     
  16 C16            5.4737    -2.2531     0.6791 C.3     
  17 C17            6.3530    -2.9731    -0.3106 C.ar    
  18 C18            7.7287    -2.8810    -0.2059 C.ar    
  19 C19            8.5372    -3.5394    -1.1117 C.ar    
  20 C20            7.9673    -4.2946    -2.1278 C.ar    
  21 C21            6.5857    -4.3855    -2.2301 C.ar    
  22 C22            5.7825    -3.7290    -1.3181 C.ar    
  23 N23            8.7852    -4.9636    -3.0490 N.pl3   
  24 C24            8.3617    -5.7285    -4.0806 C.2     
  25 F25            2.7241     2.2999    -2.2930 F       
  26 F26            3.5517    -2.8505    -0.5939 F       
  27 C27            9.4569    -6.1915    -4.7266 C.2     
  28 C28           10.5874    -5.6939    -4.0690 C.2     
  29 N29           10.1859    -4.9532    -3.0675 N.2     
  30 C30            7.5153     5.3771    -0.9582 C.ar    
  31 C31            7.8969     6.7045    -0.9581 C.ar    
  32 C32            7.3061     7.5952    -0.0808 C.ar    
  33 C33            6.3312     7.1605     0.7987 C.ar    
  34 C34            5.9407     5.8361     0.7994 C.ar    
  35 C35            4.8784     5.3633     1.7581 C.3     
  36 N36            5.5089     4.6374     2.8686 N.3     
  37 C37            6.3759     5.5224     3.6491 C.3     
  38 C38            6.9823     4.7196     4.8068 C.3     
  39 C39            5.8538     4.3711     5.7802 C.3     
  40 C40            4.6734     3.8281     5.0148 C.ar    
  41 C41            4.5532     3.9833     3.6446 C.ar    
  42 C42            3.6890     3.1567     5.7222 C.ar    
  43 C43            2.5847     2.6435     5.0708 C.ar    
  44 C44            2.4573     2.7998     3.7029 C.ar    
  45 C45            3.4336     3.4646     2.9922 C.ar    
  46 H46            1.2552     0.2393    -2.9292 H       
  47 H47            1.6294    -2.0656    -2.1605 H       
  48 H48            6.9607    -0.2353     1.3335 H       
  49 H49            5.9454    -2.2671     1.6617 H       
  50 H50            4.5053    -2.7504     0.7338 H       
  51 H51            8.1715    -2.2934     0.5847 H       
  52 H52            9.6116    -3.4666    -1.0299 H       
  53 H53            6.1395    -4.9719    -3.0196 H       
  54 H54            4.7077    -3.7993    -1.3971 H       
  55 H55            7.3340    -5.9335    -4.3417 H       
  56 H56            9.4583    -6.8321    -5.5961 H       
  57 H57           11.6144    -5.8845    -4.3435 H       
  58 H58            7.9777     4.6818    -1.6432 H       
  59 H59            8.6578     7.0471    -1.6436 H       
  60 H60            7.6067     8.6325    -0.0822 H       
  61 H61            5.8719     7.8587     1.4829 H       
  62 H62            4.3331     6.2225     2.1488 H       
  63 H63            4.1873     4.7009     1.2368 H       
  64 H64            7.1736     5.9067     3.0133 H       
  65 H65            5.7900     6.3513     4.0462 H       
  66 H66            7.4345     3.8047     4.4239 H       
  67 H67            7.7365     5.3193     5.3162 H       
  68 H68            6.2042     3.6197     6.4878 H       
  69 H69            5.5531     5.2674     6.3228 H       
  70 H70            3.7863     3.0336     6.7907 H       
  71 H71            1.8221     2.1207     5.6289 H       
  72 H72            1.5935     2.4012     3.1916 H       
  73 H73            3.3313     3.5854     1.9239 H       
@<TRIPOS>BOND
   1    1    2 ar
   2    1    6 ar
   3    1   46 1
   4    2    3 ar
   5    2   47 1
   6    3    4 ar
   7    3   26 1
   8    4    5 ar
   9    4    7 1
  10    5    6 ar
  11    5   10 1
  12    6   25 1
  13    7    8 1
  14    7   16 1
  15    8    9 2
  16    8   48 1
  17    9   10 1
  18    9   11 1
  19   10   13 2
  20   11   12 am
  21   11   15 2
  22   12   13 1
  23   12   14 1
  24   14   30 ar
  25   14   34 ar
  26   16   17 1
  27   16   49 1
  28   16   50 1
  29   17   18 ar
  30   17   22 ar
  31   18   19 ar
  32   18   51 1
  33   19   20 ar
  34   19   52 1
  35   20   21 ar
  36   20   23 1
  37   21   22 ar
  38   21   53 1
  39   22   54 1
  40   23   24 1
  41   23   29 1
  42   24   27 2
  43   24   55 1
  44   27   28 1
  45   27   56 1
  46   28   29 2
  47   28   57 1
  48   30   31 ar
  49   30   58 1
  50   31   32 ar
  51   31   59 1
  52   32   33 ar
  53   32   60 1
  54   33   34 ar
  55   33   61 1
  56   34   35 1
  57   35   36 1
  58   35   62 1
  59   35   63 1
  60   36   37 1
  61   36   41 1
  62   37   38 1
  63   37   64 1
  64   37   65 1
  65   38   39 1
  66   38   66 1
  67   38   67 1
  68   39   40 1
  69   39   68 1
  70   39   69 1
  71   40   41 ar
  72   40   42 ar
  73   41   45 ar
  74   42   43 ar
  75   42   70 1
  76   43   44 ar
  77   43   71 1
  78   44   45 ar
  79   44   72 1
  80   45   73 1

#	End of record

