#	Name: ASD01883108
#	Creating user name:	WinNT
#	Creation time:	15. 06. 2019 19:45

#	Modifying user name:	WinNT
#	Modification time:	15. 06. 2019 19:45

#	Program:	/corina/corina34_cracker 3.40 0067  02.08.2006

@<TRIPOS>MOLECULE
ASD01883108
  45   47    0    0    0
SMALL
NO_CHARGES


@<TRIPOS>ATOM
   1 N1            -1.6092     3.6098     0.4596 N.am    
   2 C2            -1.0025     2.4480     0.1535 C.2     
   3 C3            -1.7708     1.2657     0.0104 C.2     
   4 C4            -3.1619     1.3389     0.1940 C.2     
   5 C5            -3.7373     2.5838     0.5129 C.2     
   6 C6            -2.9525     3.6781     0.6422 C.2     
   7 O7             0.2064     2.4128    -0.0008 O.2     
   8 C8            -1.1419     0.0211    -0.3155 C.1     
   9 N9            -0.6430    -0.9662    -0.5739 N.1     
  10 C10           -0.8026     4.8241     0.6045 C.3     
  11 C11           -0.6924     5.5278    -0.7496 C.3     
  12 C12            0.1499     6.7961    -0.5982 C.3     
  13 C13            0.2601     7.4997    -1.9523 C.3     
  14 C14           -4.0056     0.1317     0.0545 C.ar    
  15 C15           -3.8608    -0.9312     0.9481 C.ar    
  16 C16           -4.6491    -2.0556     0.8152 C.ar    
  17 C17           -5.5836    -2.1340    -0.2012 C.ar    
  18 C18           -5.7344    -1.0822    -1.0949 C.ar    
  19 C19           -4.9524     0.0538    -0.9667 C.ar    
  20 O20           -6.6537    -1.1649    -2.0923 O.3     
  21 C21           -6.2532    -1.6675    -3.2879 C.ar    
  22 C22           -4.9701    -2.1841    -3.4518 C.ar    
  23 C23           -4.6014    -2.6862    -4.6828 C.ar    
  24 N24           -5.4466    -2.6804    -5.6962 N.ar    
  25 C25           -6.6701    -2.1998    -5.5802 C.ar    
  26 C26           -7.1168    -1.6851    -4.3806 C.ar    
  27 H27           -4.8045     2.6642     0.6582 H       
  28 H28           -3.4052     4.6276     0.8871 H       
  29 H29           -1.2772     5.4919     1.3235 H       
  30 H30            0.1937     4.5585     0.9581 H       
  31 H31           -0.2178     4.8600    -1.4685 H       
  32 H32           -1.6887     5.7934    -1.1031 H       
  33 H33           -0.3247     7.4638     0.1207 H       
  34 H34            1.1462     6.5305    -0.2447 H       
  35 H35            0.8602     8.4033    -1.8445 H       
  36 H36            0.7347     6.8320    -2.6713 H       
  37 H37           -0.7362     7.7653    -2.3059 H       
  38 H38           -3.1317    -0.8735     1.7428 H       
  39 H39           -4.5358    -2.8773     1.5069 H       
  40 H40           -6.1979    -3.0167    -0.3004 H       
  41 H41           -5.0687     0.8727    -1.6611 H       
  42 H42           -4.2733    -2.1911    -2.6266 H       
  43 H43           -3.6085    -3.0887    -4.8188 H       
  44 H44           -7.3315    -2.2134    -6.4339 H       
  45 H45           -8.1195    -1.2937    -4.2923 H       
@<TRIPOS>BOND
   1    1    2 am
   2    1   10 1
   3    1    6 1
   4    2    3 1
   5    2    7 2
   6    3    4 2
   7    3    8 1
   8    4    5 1
   9    4   14 1
  10    5    6 2
  11    5   27 1
  12    6   28 1
  13    8    9 3
  14   10   11 1
  15   10   29 1
  16   10   30 1
  17   11   12 1
  18   11   31 1
  19   11   32 1
  20   12   13 1
  21   12   33 1
  22   12   34 1
  23   13   35 1
  24   13   36 1
  25   13   37 1
  26   14   15 ar
  27   14   19 ar
  28   15   16 ar
  29   15   38 1
  30   16   17 ar
  31   16   39 1
  32   17   18 ar
  33   17   40 1
  34   18   19 ar
  35   18   20 1
  36   19   41 1
  37   20   21 1
  38   21   22 ar
  39   21   26 ar
  40   22   23 ar
  41   22   42 1
  42   23   24 ar
  43   23   43 1
  44   24   25 ar
  45   25   26 ar
  46   25   44 1
  47   26   45 1

#	End of record

