#	Name: ASD01917833
#	Creating user name:	WinNT
#	Creation time:	15. 06. 2019 20:10

#	Modifying user name:	WinNT
#	Modification time:	15. 06. 2019 20:10

#	Program:	/corina/corina34_cracker 3.40 0067  02.08.2006

@<TRIPOS>MOLECULE
ASD01917833
  43   46    0    0    0
SMALL
NO_CHARGES


@<TRIPOS>ATOM
   1 C1             0.0237     1.2345    -0.1585 C.2     
   2 C2            -0.0102    -0.1117    -0.1329 C.2     
   3 C3            -1.2710    -0.9337    -0.0453 C.3     
   4 C4            -2.4121    -0.0387     0.4540 C.3     
   5 N5            -2.3758     1.2393    -0.2727 N.am    
   6 C6            -1.2016     2.1125    -0.0929 C.3     
   7 C7            -3.3897     1.6029    -1.0828 C.2     
   8 O8            -4.2898     0.8211    -1.3180 O.2     
   9 O9             1.3087     1.6027    -0.2442 O.3     
  10 C10            2.0494     0.4833    -0.2667 C.2     
  11 N11            1.2543    -0.5493    -0.1992 N.2     
  12 C12            3.5528     0.4282    -0.3558 C.3     
  13 O13            3.9473     0.3850    -1.7286 O.3     
  14 C14            5.2806     0.3323    -1.9859 C.ar    
  15 C15            5.7338     0.2884    -3.2964 C.ar    
  16 C16            7.0897     0.2348    -3.5569 C.ar    
  17 C17            7.9958     0.2249    -2.5133 C.ar    
  18 C18            7.5469     0.2682    -1.2036 C.ar    
  19 C19            6.1904     0.3282    -0.9388 C.ar    
  20 C20           -3.4069     2.9559    -1.6865 C.ar    
  21 C21           -4.3654     3.2699    -2.6449 C.ar    
  22 C22           -4.3674     4.5524    -3.2042 C.ar    
  23 C23           -3.3993     5.4642    -2.7706 C.ar    
  24 C24           -2.4816     5.0696    -1.8121 C.ar    
  25 N25           -2.5112     3.8575    -1.3034 N.ar    
  26 F26            8.4341     0.2576    -0.1848 F       
  27 C27           -5.3340     4.9214    -4.1942 C.1     
  28 N28           -6.1009     5.2141    -4.9795 N.1     
  29 H29           -1.5199    -1.3268    -1.0311 H       
  30 H30           -1.1218    -1.7582     0.6518 H       
  31 H31           -3.3673    -0.5324     0.2752 H       
  32 H32           -2.2902     0.1456     1.5214 H       
  33 H33           -1.2519     2.6066     0.8774 H       
  34 H34           -1.1678     2.8571    -0.8881 H       
  35 H35            3.9774     1.3140     0.1166 H       
  36 H36            3.9145    -0.4645     0.1545 H       
  37 H37            5.0269     0.2957    -4.1128 H       
  38 H38            7.4419     0.2002    -4.5773 H       
  39 H39            9.0551     0.1830    -2.7193 H       
  40 H40            5.8398     0.3624     0.0821 H       
  41 H41           -5.0955     2.5358    -2.9522 H       
  42 H42           -3.3680     6.4636    -3.1788 H       
  43 H43           -1.7321     5.7698    -1.4739 H       
@<TRIPOS>BOND
   1    1    2 2
   2    1    9 1
   3    1    6 1
   4    2    3 1
   5    2   11 1
   6    3    4 1
   7    3   29 1
   8    3   30 1
   9    4    5 1
  10    4   31 1
  11    4   32 1
  12    5    6 1
  13    5    7 am
  14    6   33 1
  15    6   34 1
  16    7    8 2
  17    7   20 1
  18    9   10 1
  19   10   11 2
  20   10   12 1
  21   12   13 1
  22   12   35 1
  23   12   36 1
  24   13   14 1
  25   14   15 ar
  26   14   19 ar
  27   15   16 ar
  28   15   37 1
  29   16   17 ar
  30   16   38 1
  31   17   18 ar
  32   17   39 1
  33   18   19 ar
  34   18   26 1
  35   19   40 1
  36   20   21 ar
  37   20   25 ar
  38   21   22 ar
  39   21   41 1
  40   22   27 1
  41   22   23 ar
  42   23   24 ar
  43   23   42 1
  44   24   25 ar
  45   24   43 1
  46   27   28 3

#	End of record

