#	Name: ASD01885289
#	Creating user name:	WinNT
#	Creation time:	15. 06. 2019 19:49

#	Modifying user name:	WinNT
#	Modification time:	15. 06. 2019 19:49

#	Program:	/corina/corina34_cracker 3.40 0067  02.08.2006

@<TRIPOS>MOLECULE
ASD01885289
  50   55    0    0    0
SMALL
NO_CHARGES


@<TRIPOS>ATOM
   1 C1            -0.0170     1.4050     0.0098 C.2     
   2 C2             1.1991    -0.6521    -0.0129 C.2     
   3 C3             2.3930     0.0893    -0.0203 C.2     
   4 C4             2.3588     1.4383    -0.0121 C.2     
   5 N5             1.1665     2.1012     0.0022 N.pl3   
   6 C6             0.8241     3.4179     0.0118 C.2     
   7 N7            -0.4823     3.4846     0.0242 N.2     
   8 N8            -0.9895     2.3020     0.0186 N.2     
   9 C9             1.7760     4.5862     0.0091 C.3     
  10 C10            1.2438    -2.1584    -0.0214 C.3     
  11 C11            2.0853     4.9887    -1.4342 C.3     
  12 N12            1.3658    -2.6368    -1.4050 N.3     
  13 C13            0.0021    -0.0041     0.0020 C.2     
  14 C14            2.9455     6.2352    -1.6511 C.3     
  15 C15            3.5315     4.8463    -1.9129 C.3     
  16 Cl16          -1.4832    -0.9027     0.0119 Cl      
  17 C17            1.6529    -4.0939    -1.4410 C.3     
  18 C18            2.2730    -4.3339    -2.8343 C.3     
  19 C19            2.8530    -2.9679    -3.2555 C.3     
  20 C20            2.5347    -2.0176    -2.0813 C.3     
  21 C21            3.7841    -4.1532    -2.9922 C.3     
  22 H22            2.7314    -2.5797    -4.2667 H       
  23 H23            1.7196    -4.9624    -3.5320 H       
  24 C24            4.4400    -4.7996    -4.1851 C.ar    
  25 C25            5.4326    -5.7439    -4.0008 C.ar    
  26 C26            6.0342    -6.3368    -5.0950 C.ar    
  27 C27            5.6431    -5.9857    -6.3735 C.ar    
  28 C28            4.6498    -5.0420    -6.5578 C.ar    
  29 C29            4.0451    -4.4523    -5.4635 C.ar    
  30 H30            3.3434    -0.4236    -0.0323 H       
  31 H31            3.2826     1.9976    -0.0175 H       
  32 H32            1.3201     5.4274     0.5312 H       
  33 H33            2.6999     4.3031     0.5133 H       
  34 H34            2.1016    -2.4997     0.5580 H       
  35 H35            0.3278    -2.5516     0.4195 H       
  36 H36            1.2938     4.7914    -2.1572 H       
  37 H37            2.7203     6.8578    -2.5170 H       
  38 H38            3.2911     6.7685    -0.7655 H       
  39 H39            4.2626     4.4659    -1.1995 H       
  40 H40            3.6917     4.5551    -2.9510 H       
  41 H41            2.3626    -4.3611    -0.6580 H       
  42 H42            0.7315    -4.6658    -1.3314 H       
  43 H43            2.2771    -1.0261    -2.4537 H       
  44 H44            3.3823    -1.9598    -1.3984 H       
  45 H45            4.3847    -4.1279    -2.0829 H       
  46 H46            5.7382    -6.0182    -3.0019 H       
  47 H47            6.8102    -7.0740    -4.9511 H       
  48 H48            6.1136    -6.4483    -7.2284 H       
  49 H49            4.3444    -4.7675    -7.5567 H       
  50 H50            3.2666    -3.7177    -5.6074 H       
@<TRIPOS>BOND
   1    1   13 1
   2    1    5 1
   3    1    8 2
   4    2    3 1
   5    2   10 1
   6    2   13 2
   7    3    4 2
   8    3   30 1
   9    4    5 1
  10    4   31 1
  11    5    6 1
  12    6    7 2
  13    6    9 1
  14    7    8 1
  15    9   11 1
  16    9   32 1
  17    9   33 1
  18   10   12 1
  19   10   34 1
  20   10   35 1
  21   11   14 1
  22   11   15 1
  23   11   36 1
  24   12   17 1
  25   12   20 1
  26   13   16 1
  27   14   15 1
  28   14   37 1
  29   14   38 1
  30   15   39 1
  31   15   40 1
  32   17   18 1
  33   17   41 1
  34   17   42 1
  35   18   19 1
  36   18   23 1
  37   18   21 1
  38   19   20 1
  39   19   22 1
  40   19   21 1
  41   20   43 1
  42   20   44 1
  43   21   24 1
  44   21   45 1
  45   24   25 ar
  46   24   29 ar
  47   25   26 ar
  48   25   46 1
  49   26   27 ar
  50   26   47 1
  51   27   28 ar
  52   27   48 1
  53   28   29 ar
  54   28   49 1
  55   29   50 1

#	End of record

