#	Name: ASD04590196
#	Creating user name:	WinNT
#	Creation time:	15. 06. 2019 20:50

#	Modifying user name:	WinNT
#	Modification time:	15. 06. 2019 20:50

#	Program:	/corina/corina34_cracker 3.40 0067  02.08.2006

@<TRIPOS>MOLECULE
ASD04590196
  54   56    0    0    0
SMALL
NO_CHARGES


@<TRIPOS>ATOM
   1 N1            -0.0153     1.2802     0.0091 N.pl3   
   2 N2             0.0021    -0.0041     0.0020 N.2     
   3 C3             1.2455    -0.4440    -0.0122 C.2     
   4 C4             2.0903     0.6961    -0.0142 C.2     
   5 C5             1.2523     1.7667    -0.0004 C.2     
   6 C6             1.6765    -1.8547    -0.0235 C.2     
   7 N7             0.7571    -2.8402    -0.0200 N.am    
   8 N8             3.4930     0.7146    -0.0275 N.am    
   9 O9             2.8611    -2.1284    -0.0359 O.2     
  10 C10            4.1514     1.8906    -0.0274 C.2     
  11 C11            5.6264     1.9101    -0.0414 C.ar    
  12 O12            3.5296     2.9356    -0.0159 O.2     
  13 C13            1.1860    -4.2443    -0.0312 C.3     
  14 N14            0.9909    -7.0234     0.6492 N.3     
  15 C15            1.8762    -6.1682     1.4147 C.3     
  16 C16            1.4261    -4.7078     1.4067 C.3     
  17 C17            6.3414     1.9129     1.1612 C.ar    
  18 C18            7.7233     1.9313     1.1389 C.ar    
  19 C19            8.3992     1.9473    -0.0677 C.ar    
  20 C20            7.7004     1.9452    -1.2612 C.ar    
  21 C21            6.3184     1.9201    -1.2574 C.ar    
  22 F22            5.6831     1.8982     2.3408 F       
  23 F23            5.6376     1.9176    -2.4243 F       
  24 C24            0.0768    -5.1051    -0.6353 C.3     
  25 C25            0.4788    -6.5776    -0.6301 C.3     
  26 C26            1.4905    -6.8363    -1.7530 C.3     
  27 C27           -0.7852    -7.4048    -0.9563 C.3     
  28 C28            1.8628    -6.6507     2.8819 C.3     
  29 C29            3.3206    -6.2669     0.9148 C.3     
  30 H30           -0.8184     1.8242     0.0160 H       
  31 H31            1.5405     2.8076     0.0024 H       
  32 H32           -0.1879    -2.6218    -0.0102 H       
  33 H33            3.9890    -0.1189    -0.0367 H       
  34 H34            2.0967    -4.3316    -0.6168 H       
  35 H35            1.3048    -7.9821     0.6275 H       
  36 H36            2.1983    -4.0867     1.8640 H       
  37 H37            0.5023    -4.6086     1.9791 H       
  38 H38            8.2768     1.9335     2.0662 H       
  39 H39            9.4791     1.9620    -0.0779 H       
  40 H40            8.2361     1.9585    -2.1989 H       
  41 H41           -0.8388    -4.9763    -0.0531 H       
  42 H42           -0.1121    -4.7836    -1.6623 H       
  43 H43            2.3743    -6.2183    -1.5952 H       
  44 H44            1.7770    -7.8880    -1.7487 H       
  45 H45            1.0392    -6.5866    -2.7133 H       
  46 H46           -1.1649    -7.1170    -1.9366 H       
  47 H47           -0.5341    -8.4655    -0.9610 H       
  48 H48           -1.5482    -7.2155    -0.2012 H       
  49 H49            2.2074    -7.6837     2.9279 H       
  50 H50            2.5232    -6.0205     3.4776 H       
  51 H51            0.8483    -6.5882     3.2757 H       
  52 H52            3.3649    -5.9622    -0.1308 H       
  53 H53            3.9569    -5.6129     1.5111 H       
  54 H54            3.6680    -7.2958     1.0085 H       
@<TRIPOS>BOND
   1    1    2 1
   2    1    5 1
   3    1   30 1
   4    2    3 2
   5    3    4 1
   6    3    6 1
   7    4    5 2
   8    4    8 1
   9    5   31 1
  10    6    7 am
  11    6    9 2
  12    7   13 1
  13    7   32 1
  14    8   10 am
  15    8   33 1
  16   10   11 1
  17   10   12 2
  18   11   17 ar
  19   11   21 ar
  20   13   24 1
  21   13   16 1
  22   13   34 1
  23   14   15 1
  24   14   25 1
  25   14   35 1
  26   15   16 1
  27   15   28 1
  28   15   29 1
  29   16   36 1
  30   16   37 1
  31   17   18 ar
  32   17   22 1
  33   18   19 ar
  34   18   38 1
  35   19   20 ar
  36   19   39 1
  37   20   21 ar
  38   20   40 1
  39   21   23 1
  40   24   25 1
  41   24   41 1
  42   24   42 1
  43   25   26 1
  44   25   27 1
  45   26   43 1
  46   26   44 1
  47   26   45 1
  48   27   46 1
  49   27   47 1
  50   27   48 1
  51   28   49 1
  52   28   50 1
  53   28   51 1
  54   29   52 1
  55   29   53 1
  56   29   54 1

#	End of record

