#	Name: ASD05430415
#	Creating user name:	WinNT
#	Creation time:	15. 06. 2019 21:00

#	Modifying user name:	WinNT
#	Modification time:	15. 06. 2019 21:00

#	Program:	/corina/corina34_cracker 3.40 0067  02.08.2006

@<TRIPOS>MOLECULE
ASD05430415
  57   61    0    0    0
SMALL
NO_CHARGES


@<TRIPOS>ATOM
   1 C1            -0.0404     1.3902     0.2601 C.ar    
   2 C2            -0.0358     0.0020     0.3987 C.ar    
   3 C3            -1.2343    -0.6999     0.4396 C.ar    
   4 C4            -2.4331    -0.0288     0.3435 C.ar    
   5 C5            -2.4460     1.3644     0.2047 C.ar    
   6 C6            -1.2386     2.0715     0.1688 C.ar    
   7 C7            -4.8830     1.3899    -0.0126 C.2     
   8 C8            -3.7235     2.0825     0.1014 C.2     
   9 C9            -6.2104     2.0369     0.0339 C.2     
  10 O10            1.1345     2.0732     0.2205 O.3     
  11 C11            1.5165    -1.6158     1.4462 C.2     
  12 N12            1.1802    -0.6860     0.4964 N.pl3   
  13 C13            2.7698    -2.0221     1.1677 C.2     
  14 N14            3.1920    -1.3620     0.0790 N.2     
  15 C15            2.2490    -0.5588    -0.3325 C.2     
  16 C16            3.5615    -3.0419     1.9451 C.3     
  17 N17           -7.3445     1.2573     0.1508 N.pl3   
  18 C18           -8.4741     2.1812     0.2104 C.3     
  19 C19           -7.8132     3.5424     0.0755 C.2     
  20 N20           -6.5037     3.3135    -0.0181 N.2     
  21 O21           -8.3680     4.6238     0.0558 O.2     
  22 C22           -9.4243     1.9349    -0.9330 C.ar    
  23 C23           -9.3163     2.6787    -2.0933 C.ar    
  24 C24          -10.3997     0.9615    -0.8230 C.ar    
  25 C25          -11.2711     0.7341    -1.8713 C.ar    
  26 C26          -11.1672     1.4821    -3.0318 C.ar    
  27 C27          -10.1868     2.4535    -3.1427 C.ar    
  28 F28          -12.0186     1.2607    -4.0572 F       
  29 C29            1.0551     3.4927     0.0769 C.3     
  30 O30           -4.9230     0.0254    -0.1872 O.3     
  31 C31           -5.9110    -0.6632     0.5907 C.3     
  32 C32           -7.3178    -0.2034     0.1791 C.3     
  33 C33           -9.1989     2.0629     1.5526 C.3     
  34 O34          -10.2973     2.9764     1.5830 O.3     
  35 H35           -1.2257    -1.7745     0.5467 H       
  36 H36           -3.3630    -0.5771     0.3749 H       
  37 H37           -1.2436     3.1462     0.0621 H       
  38 H38           -3.7388     3.1623     0.1164 H       
  39 H39            0.8970    -1.9540     2.2637 H       
  40 H40            2.3084     0.0968    -1.1886 H       
  41 H41            3.3773    -4.0347     1.5346 H       
  42 H42            4.6239    -2.8099     1.8719 H       
  43 H43            3.2557    -3.0188     2.9911 H       
  44 H44           -8.5515     3.4364    -2.1795 H       
  45 H45          -10.4806     0.3782     0.0823 H       
  46 H46          -12.0326    -0.0269    -1.7854 H       
  47 H47          -10.1051     3.0377    -4.0473 H       
  48 H48            0.5006     3.9124     0.9162 H       
  49 H49            2.0608     3.9129     0.0594 H       
  50 H50            0.5436     3.7357    -0.8545 H       
  51 H51           -5.8175    -1.7366     0.4260 H       
  52 H52           -5.7552    -0.4461     1.6474 H       
  53 H53           -8.0484    -0.5719     0.8991 H       
  54 H54           -7.5526    -0.5879    -0.8135 H       
  55 H55           -9.5691     1.0453     1.6772 H       
  56 H56           -8.5072     2.2994     2.3612 H       
  57 H57          -10.8034     2.9557     2.4067 H       
@<TRIPOS>BOND
   1    1    2 ar
   2    1   10 1
   3    1    6 ar
   4    2    3 ar
   5    2   12 1
   6    3    4 ar
   7    3   35 1
   8    4    5 ar
   9    4   36 1
  10    5    6 ar
  11    5    8 1
  12    6   37 1
  13    7    8 2
  14    7   30 1
  15    7    9 1
  16    8   38 1
  17    9   17 1
  18    9   20 2
  19   10   29 1
  20   11   12 1
  21   11   13 2
  22   11   39 1
  23   12   15 1
  24   13   14 1
  25   13   16 1
  26   14   15 2
  27   15   40 1
  28   16   41 1
  29   16   42 1
  30   16   43 1
  31   17   18 1
  32   17   32 1
  33   18   19 1
  34   18   22 1
  35   18   33 1
  36   19   20 1
  37   19   21 2
  38   22   23 ar
  39   22   24 ar
  40   23   27 ar
  41   23   44 1
  42   24   25 ar
  43   24   45 1
  44   25   26 ar
  45   25   46 1
  46   26   27 ar
  47   26   28 1
  48   27   47 1
  49   29   48 1
  50   29   49 1
  51   29   50 1
  52   30   31 1
  53   31   32 1
  54   31   51 1
  55   31   52 1
  56   32   53 1
  57   32   54 1
  58   33   34 1
  59   33   55 1
  60   33   56 1
  61   34   57 1

#	End of record

