#	Name: ASD03330748
#	Creating user name:	WinNT
#	Creation time:	15. 06. 2019 20:37

#	Modifying user name:	WinNT
#	Modification time:	15. 06. 2019 20:37

#	Program:	/corina/corina34_cracker 3.40 0067  02.08.2006

@<TRIPOS>MOLECULE
ASD03330748
  60   62    0    0    0
SMALL
NO_CHARGES


@<TRIPOS>ATOM
   1 C1            -0.0026     1.3639    -0.1266 C.2     
   2 N2             0.0181     0.0077    -0.2195 N.pl3   
   3 C3             1.2718     1.7667     0.1353 C.2     
   4 N4             2.0513     0.6641     0.1816 N.2     
   5 C5             1.3083    -0.3957    -0.0360 C.2     
   6 C6             1.7896    -1.7939    -0.0755 C.ar    
   7 C7             1.7203     3.1564     0.3324 C.2     
   8 O8             0.9192     4.0692     0.2658 O.2     
   9 C9             3.4640     4.7977     0.7824 C.3     
  10 N10            3.0181     3.4160     0.5865 N.am    
  11 C11            3.7538     5.4377    -0.5767 C.3     
  12 C12            4.7171     4.8072     1.6195 C.2     
  13 O13            5.1911     3.7627     2.0136 O.2     
  14 C14           -1.1491    -0.8455    -0.4590 C.3     
  15 C15           -1.9652    -0.2663    -1.6188 C.3     
  16 C16           -2.9641     0.7561    -1.0865 C.3     
  17 N17           -2.4176     1.4765     0.0652 N.3     
  18 C18           -1.2158     2.2397    -0.3030 C.3     
  19 C19            0.9524    -2.8341     0.3301 C.ar    
  20 C20            3.0798    -2.0775    -0.5239 C.ar    
  21 C21            3.5239    -3.3840    -0.5588 C.ar    
  22 C22            2.6894    -4.4132    -0.1495 C.ar    
  23 C23            1.4052    -4.1362     0.2916 C.ar    
  24 C24           -3.4320     2.3508     0.6689 C.3     
  25 N25            5.3111     5.9764     1.9302 N.am    
  26 C26            6.5293     5.9857     2.7440 C.3     
  27 C27            2.4550     5.5415    -1.3789 C.3     
  28 C28            1.4961     6.5035    -0.6746 C.3     
  29 C29            2.7633     6.0654    -2.7829 C.3     
  30 Cl30           5.1291    -3.7394    -1.1163 Cl      
  31 F31            3.1278    -5.6905    -0.1861 F       
  32 H32            2.6830     5.3629     1.2911 H       
  33 H33            3.6570     2.6881     0.6396 H       
  34 H34            4.1694     6.4343    -0.4278 H       
  35 H35            4.4698     4.8232    -1.1225 H       
  36 H36           -0.8182    -1.8524    -0.7135 H       
  37 H37           -1.7658    -0.8797     0.4390 H       
  38 H38           -1.2939     0.2180    -2.3280 H       
  39 H39           -2.5026    -1.0706    -2.1211 H       
  40 H40           -3.2001     1.4700    -1.8757 H       
  41 H41           -3.8768     0.2416    -0.7863 H       
  42 H42           -1.1294     3.1159     0.3396 H       
  43 H43           -1.2892     2.5554    -1.3437 H       
  44 H44           -0.0487    -2.6197     0.6741 H       
  45 H45            3.7299    -1.2764    -0.8435 H       
  46 H46            0.7593    -4.9411     0.6097 H       
  47 H47           -4.2780     1.7496     1.0020 H       
  48 H48           -2.9997     2.8738     1.5219 H       
  49 H49           -3.7710     3.0777    -0.0692 H       
  50 H50            4.9321     6.8118     1.6150 H       
  51 H51            6.8610     7.0137     2.8898 H       
  52 H52            6.3229     5.5297     3.7123 H       
  53 H53            7.3103     5.4205     2.2354 H       
  54 H54            1.9934     4.5568    -1.4517 H       
  55 H55            1.9578     7.4882    -0.6018 H       
  56 H56            0.5709     6.5774    -1.2461 H       
  57 H57            1.2765     6.1302     0.3256 H       
  58 H58            3.4464     5.3801    -3.2846 H       
  59 H59            1.8380     6.1393    -3.3544 H       
  60 H60            3.2249     7.0501    -2.7100 H       
@<TRIPOS>BOND
   1    1    2 1
   2    1    3 2
   3    1   18 1
   4    2   14 1
   5    2    5 1
   6    3    4 1
   7    3    7 1
   8    4    5 2
   9    5    6 1
  10    6   20 ar
  11    6   19 ar
  12    7    8 2
  13    7   10 am
  14    9   10 1
  15    9   11 1
  16    9   12 1
  17    9   32 1
  18   10   33 1
  19   11   27 1
  20   11   34 1
  21   11   35 1
  22   12   13 2
  23   12   25 am
  24   14   15 1
  25   14   36 1
  26   14   37 1
  27   15   16 1
  28   15   38 1
  29   15   39 1
  30   16   17 1
  31   16   40 1
  32   16   41 1
  33   17   18 1
  34   17   24 1
  35   18   42 1
  36   18   43 1
  37   19   23 ar
  38   19   44 1
  39   20   21 ar
  40   20   45 1
  41   21   22 ar
  42   21   30 1
  43   22   23 ar
  44   22   31 1
  45   23   46 1
  46   24   47 1
  47   24   48 1
  48   24   49 1
  49   25   26 1
  50   25   50 1
  51   26   51 1
  52   26   52 1
  53   26   53 1
  54   27   28 1
  55   27   29 1
  56   27   54 1
  57   28   55 1
  58   28   56 1
  59   28   57 1
  60   29   58 1
  61   29   59 1
  62   29   60 1

#	End of record

