#	Name: ASD00069490
#	Creating user name:	WinNT
#	Creation time:	15. 06. 2019 18:29

#	Modifying user name:	WinNT
#	Modification time:	15. 06. 2019 18:29

#	Program:	/corina/corina34_cracker 3.40 0067  02.08.2006

@<TRIPOS>MOLECULE
ASD00069490
  34   35    0    0    0
SMALL
NO_CHARGES


@<TRIPOS>ATOM
   1 O1            -0.0174     1.4305     0.0099 O.3     
   2 B2             0.0021    -0.0041     0.0020 Du      
   3 O3             1.0670    -0.3534    -0.8937 O.3     
   4 C4            -0.9361    -0.9782     0.7993 C.2     
   5 C5            -1.8671    -0.4675     1.5817 C.2     
   6 C6            -0.7462    -2.4618     0.6399 C.3     
   7 C7            -1.4532    -3.1953     1.7830 C.3     
   8 O8            -2.7785    -2.6659     1.9105 O.3     
   9 C9            -2.8045    -1.3210     2.3884 C.3     
  10 C10            2.1089     0.6053    -0.6139 C.3     
  11 C11            1.3736     1.8147    -0.0013 C.3     
  12 C12            1.5763     3.0578    -0.8700 C.3     
  13 C13            1.8670     2.0726     1.4238 C.3     
  14 C14            3.1105     0.0270     0.3877 C.3     
  15 C15            2.8198     1.0122    -1.9062 C.3     
  16 H16           -1.9591     0.6067     1.6453 H       
  17 H17           -1.1685    -2.7816    -0.3128 H       
  18 H18            0.3181    -2.6960     0.6617 H       
  19 H19           -1.5044    -4.2607     1.5584 H       
  20 H20           -0.9055    -3.0396     2.7124 H       
  21 H21           -2.4964    -1.3028     3.4338 H       
  22 H22           -3.8175    -0.9274     2.3051 H       
  23 H23            1.1819     2.8713    -1.8689 H       
  24 H24            1.0512     3.9024    -0.4239 H       
  25 H25            2.6403     3.2853    -0.9361 H       
  26 H26            2.9371     2.2793     1.4061 H       
  27 H27            1.3383     2.9292     1.8419 H       
  28 H28            1.6771     1.1929     2.0388 H       
  29 H29            3.5790    -0.8603    -0.0381 H       
  30 H30            3.8754     0.7717     0.6077 H       
  31 H31            2.5906    -0.2424     1.3071 H       
  32 H32            2.0954     1.4363    -2.6014 H       
  33 H33            3.5854     1.7548    -1.6813 H       
  34 H34            3.2852     0.1354    -2.3564 H       
@<TRIPOS>BOND
   1    1    2 1
   2    1   11 1
   3    2    3 1
   4    2    4 1
   5    3   10 1
   6    4    5 2
   7    4    6 1
   8    5    9 1
   9    5   16 1
  10    6    7 1
  11    6   17 1
  12    6   18 1
  13    7    8 1
  14    7   19 1
  15    7   20 1
  16    8    9 1
  17    9   21 1
  18    9   22 1
  19   10   11 1
  20   10   14 1
  21   10   15 1
  22   11   12 1
  23   11   13 1
  24   12   23 1
  25   12   24 1
  26   12   25 1
  27   13   26 1
  28   13   27 1
  29   13   28 1
  30   14   29 1
  31   14   30 1
  32   14   31 1
  33   15   32 1
  34   15   33 1
  35   15   34 1

#	End of record

