#	Name: ASD01810298
#	Creating user name:	WinNT
#	Creation time:	15. 06. 2019 19:24

#	Modifying user name:	WinNT
#	Modification time:	15. 06. 2019 19:24

#	Program:	/corina/corina34_cracker 3.40 0067  02.08.2006

@<TRIPOS>MOLECULE
ASD01810298
  48   51    0    0    0
SMALL
NO_CHARGES


@<TRIPOS>ATOM
   1 C1             0.1039     1.4772     0.3902 C.ar    
   2 C2             0.0850     0.0900     0.3822 C.ar    
   3 C3             1.2535    -0.6294     0.2402 C.ar    
   4 C4             2.4698     0.0389     0.1030 C.ar    
   5 C5             2.4841     1.4436     0.1117 C.ar    
   6 C6             1.2943     2.1571     0.2561 C.ar    
   7 N7             3.6452    -0.6678    -0.0386 N.pl3   
   8 C8             4.8373    -0.0735    -0.1722 C.2     
   9 C9             4.9781     1.2999    -0.1779 C.2     
  10 C10            3.7770     2.1382    -0.0343 C.2     
  11 O11            3.8480     3.3547    -0.0335 O.2     
  12 C12            3.5871    -2.1316    -0.0427 C.3     
  13 C13            3.4445    -2.6248    -1.4595 C.ar    
  14 C14            4.5665    -2.7659    -2.2561 C.ar    
  15 C15            4.4418    -3.2167    -3.5546 C.ar    
  16 C16            3.1826    -3.5303    -4.0626 C.ar    
  17 C17            2.0558    -3.3867    -3.2554 C.ar    
  18 C18            2.1928    -2.9400    -1.9568 C.ar    
  19 C19            3.0422    -4.0149    -5.4578 C.ar    
  20 C20            6.3049     1.9144    -0.3259 C.2     
  21 O21            6.4294     3.2567    -0.3300 O.3     
  22 O22            7.2902     1.2123    -0.4446 O.2     
  23 F23            1.2196    -1.9800     0.2346 F       
  24 C24            1.7822    -4.3282    -5.9647 C.ar    
  25 C25            1.6548    -4.7780    -7.2621 C.ar    
  26 C26            2.7800    -4.9192    -8.0630 C.ar    
  27 C27            4.0363    -4.6079    -7.5609 C.ar    
  28 C28            4.1694    -4.1522    -6.2661 C.ar    
  29 O29            2.6514    -5.3634    -9.3406 O.3     
  30 C30            3.8502    -5.4853   -10.1088 C.3     
  31 H31           -0.8196     2.0267     0.4977 H       
  32 H32           -0.8544    -0.4321     0.4885 H       
  33 H33            1.3063     3.2370     0.2624 H       
  34 H34            5.7184    -0.6889    -0.2786 H       
  35 H35            4.5030    -2.5328     0.3913 H       
  36 H36            2.7311    -2.4629     0.5452 H       
  37 H37            5.5419    -2.5226    -1.8614 H       
  38 H38            5.3184    -3.3259    -4.1760 H       
  39 H39            1.0775    -3.6280    -3.6442 H       
  40 H40            1.3203    -2.8286    -1.3302 H       
  41 H41            7.3222     3.6145    -0.4300 H       
  42 H42            0.9067    -4.2192    -5.3419 H       
  43 H43            0.6787    -5.0209    -7.6554 H       
  44 H44            4.9099    -4.7191    -8.1861 H       
  45 H45            5.1469    -3.9099    -5.8761 H       
  46 H46            4.5246    -6.1888    -9.6206 H       
  47 H47            3.6066    -5.8487   -11.1071 H       
  48 H48            4.3337    -4.5114   -10.1846 H       
@<TRIPOS>BOND
   1    1    2 ar
   2    1    6 ar
   3    1   31 1
   4    2    3 ar
   5    2   32 1
   6    3    4 ar
   7    3   23 1
   8    4    5 ar
   9    4    7 1
  10    5    6 ar
  11    5   10 1
  12    6   33 1
  13    7    8 1
  14    7   12 1
  15    8    9 2
  16    8   34 1
  17    9   10 1
  18    9   20 1
  19   10   11 2
  20   12   13 1
  21   12   35 1
  22   12   36 1
  23   13   14 ar
  24   13   18 ar
  25   14   15 ar
  26   14   37 1
  27   15   16 ar
  28   15   38 1
  29   16   17 ar
  30   16   19 1
  31   17   18 ar
  32   17   39 1
  33   18   40 1
  34   19   24 ar
  35   19   28 ar
  36   20   21 1
  37   20   22 2
  38   21   41 1
  39   24   25 ar
  40   24   42 1
  41   25   26 ar
  42   25   43 1
  43   26   27 ar
  44   26   29 1
  45   27   28 ar
  46   27   44 1
  47   28   45 1
  48   29   30 1
  49   30   46 1
  50   30   47 1
  51   30   48 1

#	End of record

