#	Name: ASD01001100
#	Creating user name:	WinNT
#	Creation time:	15. 06. 2019 18:55

#	Modifying user name:	WinNT
#	Modification time:	15. 06. 2019 18:55

#	Program:	/corina/corina34_cracker 3.40 0067  02.08.2006

@<TRIPOS>MOLECULE
ASD01001100
  63   66    0    0    0
SMALL
NO_CHARGES


@<TRIPOS>ATOM
   1 C1             0.2635    -9.9012     0.7053 C.2     
   2 N2            -0.9162    -9.2554     1.0285 N.pl3   
   3 N3            -1.0055    -7.8721     0.8283 N.2     
   4 C4            -0.0140    -7.1974     0.3517 C.2     
   5 N5             1.1822    -7.7782     0.0116 N.am    
   6 C6             1.3697    -9.1069     0.1728 C.2     
   7 C7             0.1014   -11.2400     0.9895 C.2     
   8 C8            -1.1954   -11.3929     1.4897 C.2     
   9 C9            -1.7856   -10.1701     1.5003 C.2     
  10 O10            2.4280    -9.6301    -0.1265 O.2     
  11 C11            2.2656    -6.9508    -0.5248 C.3     
  12 C12            2.2518    -7.0193    -2.0302 C.ar    
  13 C13            1.5074    -6.1088    -2.7567 C.ar    
  14 C14            1.4946    -6.1716    -4.1375 C.ar    
  15 C15            2.2267    -7.1446    -4.7920 C.ar    
  16 C16            2.9718    -8.0545    -4.0655 C.ar    
  17 C17            2.9880    -7.9890    -2.6848 C.ar    
  18 C18           -0.1762    -5.7114     0.1604 C.3     
  19 N19           -1.5060    -5.3023     0.6194 N.am    
  20 C20            0.8759    -4.9844     0.9576 C.2     
  21 C21           -1.8566    -5.4099     2.0377 C.3     
  22 C22           -2.4068    -4.8269    -0.2633 C.2     
  23 C23           -3.7257    -4.3541     0.2086 C.ar    
  24 O24           -2.1348    -4.7870    -1.4473 O.2     
  25 C25           -4.1257    -3.0386    -0.0316 C.ar    
  26 C26           -5.3577    -2.6037     0.4115 C.ar    
  27 C27           -6.1961    -3.4684     1.0926 C.ar    
  28 C28           -5.8054    -4.7735     1.3343 C.ar    
  29 C29           -4.5786    -5.2228     0.8912 C.ar    
  30 C30           -7.5404    -2.9864     1.5736 C.3     
  31 C31           -1.4085    -4.1442     2.7713 C.3     
  32 C32           -1.7393    -4.2731     4.2595 C.3     
  33 N33           -1.3091    -3.0579     4.9638 N.3     
  34 Cl34           1.2804   -12.4951     0.7689 Cl      
  35 C35            1.6283    -4.0814     0.3793 C.2     
  36 H36           -1.6475   -12.3196     1.8109 H       
  37 H37           -2.7917    -9.9635     1.8343 H       
  38 H38            2.1254    -5.9177    -0.2068 H       
  39 H39            3.2219    -7.3188    -0.1532 H       
  40 H40            0.9355    -5.3486    -2.2454 H       
  41 H41            0.9125    -5.4607    -4.7051 H       
  42 H42            2.2162    -7.1941    -5.8708 H       
  43 H43            3.5434    -8.8150    -4.5768 H       
  44 H44            3.5701    -8.6999    -2.1172 H       
  45 H45           -0.0653    -5.4668    -0.8959 H       
  46 H46            1.0097    -5.2079     2.0057 H       
  47 H47           -2.9359    -5.5248     2.1375 H       
  48 H48           -1.3574    -6.2767     2.4706 H       
  49 H49           -3.4721    -2.3626    -0.5628 H       
  50 H50           -5.6683    -1.5860     0.2266 H       
  51 H51           -6.4643    -5.4433     1.8669 H       
  52 H52           -4.2750    -6.2419     1.0803 H       
  53 H53           -8.2875    -3.1613     0.7994 H       
  54 H54           -7.8192    -3.5293     2.4768 H       
  55 H55           -7.4870    -1.9200     1.7927 H       
  56 H56           -0.3334    -4.0142     2.6480 H       
  57 H57           -1.9288    -3.2806     2.3569 H       
  58 H58           -2.8145    -4.4032     4.3828 H       
  59 H59           -1.2190    -5.1367     4.6739 H       
  60 H60           -1.7285    -2.2358     4.5558 H       
  61 H61           -1.5168    -3.1185     5.9494 H       
  62 H62            1.4408    -3.7985    -0.6460 H       
  63 H63            2.4362    -3.6198     0.9277 H       
@<TRIPOS>BOND
   1    1    2 1
   2    1    7 2
   3    1    6 1
   4    2    3 1
   5    2    9 1
   6    3    4 2
   7    4    5 1
   8    4   18 1
   9    5    6 am
  10    5   11 1
  11    6   10 2
  12    7    8 1
  13    7   34 1
  14    8    9 2
  15    8   36 1
  16    9   37 1
  17   11   12 1
  18   11   38 1
  19   11   39 1
  20   12   13 ar
  21   12   17 ar
  22   13   14 ar
  23   13   40 1
  24   14   15 ar
  25   14   41 1
  26   15   16 ar
  27   15   42 1
  28   16   17 ar
  29   16   43 1
  30   17   44 1
  31   18   19 1
  32   18   20 1
  33   18   45 1
  34   19   21 1
  35   19   22 am
  36   20   35 2
  37   20   46 1
  38   21   31 1
  39   21   47 1
  40   21   48 1
  41   22   23 1
  42   22   24 2
  43   23   25 ar
  44   23   29 ar
  45   25   26 ar
  46   25   49 1
  47   26   27 ar
  48   26   50 1
  49   27   28 ar
  50   27   30 1
  51   28   29 ar
  52   28   51 1
  53   29   52 1
  54   30   53 1
  55   30   54 1
  56   30   55 1
  57   31   32 1
  58   31   56 1
  59   31   57 1
  60   32   33 1
  61   32   58 1
  62   32   59 1
  63   33   60 1
  64   33   61 1
  65   35   62 1
  66   35   63 1

#	End of record

