#	Name: ASD01150922
#	Creating user name:	WinNT
#	Creation time:	15. 06. 2019 19:05

#	Modifying user name:	WinNT
#	Modification time:	15. 06. 2019 19:05

#	Program:	/corina/corina34_cracker 3.40 0067  02.08.2006

@<TRIPOS>MOLECULE
ASD01150922
  49   51    0    0    0
SMALL
NO_CHARGES


@<TRIPOS>ATOM
   1 C1            -0.0179     1.4724     0.0101 C.ar    
   2 C2             0.0021    -0.0041     0.0020 C.2     
   3 N3            -1.1558    -0.6938     0.0094 N.am    
   4 O4             1.0630    -0.5975    -0.0113 O.2     
   5 C5            -1.1370    -2.0836     0.0017 C.2     
   6 N6            -0.0478    -2.8559    -0.0124 N.2     
   7 C7            -0.3959    -4.1265    -0.0160 C.2     
   8 N8            -1.7505    -4.2220    -0.0042 N.pl3   
   9 C9            -2.2479    -2.9178     0.0134 C.2     
  10 C10           -3.6019    -2.5267     0.0307 C.2     
  11 O11           -4.5752    -3.4630     0.0314 O.3     
  12 O12           -3.8941    -1.3445     0.0451 O.2     
  13 C13           -5.9254    -2.9952     0.0494 C.3     
  14 C14           -6.8796    -4.1912     0.0473 C.3     
  15 S15            0.7214    -5.4889    -0.0341 S.3     
  16 C16            2.2989    -4.6015    -0.0434 C.3     
  17 C17           -2.5386    -5.4570    -0.0036 C.3     
  18 C18           -2.7964    -5.8877     1.4173 C.ar    
  19 C19           -3.9237    -5.4413     2.0811 C.ar    
  20 C20           -4.1602    -5.8364     3.3845 C.ar    
  21 C21           -3.2695    -6.6782     4.0240 C.ar    
  22 C22           -2.1426    -7.1254     3.3598 C.ar    
  23 C23           -1.9084    -6.7337     2.0550 C.ar    
  24 C24            1.1809     2.1906     0.0025 C.ar    
  25 C25            1.1546     3.5712     0.0097 C.ar    
  26 C26           -0.0558     4.2427     0.0244 C.ar    
  27 C27           -1.2475     3.5356     0.0325 C.ar    
  28 C28           -1.2353     2.1574     0.0196 C.ar    
  29 Cl29           2.6993     1.3493    -0.0153 Cl      
  30 Cl30          -0.0809     5.9785     0.0334 Cl      
  31 H31           -2.0023    -0.2203     0.0200 H       
  32 H32           -6.0915    -2.3994     0.9469 H       
  33 H33           -6.1093    -2.3821    -0.8329 H       
  34 H34           -7.9094    -3.8343     0.0611 H       
  35 H35           -6.7134    -4.7870    -0.8502 H       
  36 H36           -6.6956    -4.8042     0.9296 H       
  37 H37            3.1193    -5.3190    -0.0550 H       
  38 H38            2.3556    -3.9704    -0.9303 H       
  39 H39            2.3718    -3.9807     0.8496 H       
  40 H40           -3.4887    -5.2819    -0.5083 H       
  41 H41           -1.9883    -6.2393    -0.5263 H       
  42 H42           -4.6196    -4.7836     1.5816 H       
  43 H43           -5.0406    -5.4870     3.9034 H       
  44 H44           -3.4539    -6.9863     5.0425 H       
  45 H45           -1.4466    -7.7828     3.8595 H       
  46 H46           -1.0280    -7.0831     1.5361 H       
  47 H47            2.0799     4.1280     0.0042 H       
  48 H48           -2.1884     4.0657     0.0446 H       
  49 H49           -2.1651     1.6080     0.0258 H       
@<TRIPOS>BOND
   1    1    2 1
   2    1   24 ar
   3    1   28 ar
   4    2    3 am
   5    2    4 2
   6    3    5 1
   7    3   31 1
   8    5    6 1
   9    5    9 2
  10    6    7 2
  11    7    8 1
  12    7   15 1
  13    8    9 1
  14    8   17 1
  15    9   10 1
  16   10   11 1
  17   10   12 2
  18   11   13 1
  19   13   14 1
  20   13   32 1
  21   13   33 1
  22   14   34 1
  23   14   35 1
  24   14   36 1
  25   15   16 1
  26   16   37 1
  27   16   38 1
  28   16   39 1
  29   17   18 1
  30   17   40 1
  31   17   41 1
  32   18   19 ar
  33   18   23 ar
  34   19   20 ar
  35   19   42 1
  36   20   21 ar
  37   20   43 1
  38   21   22 ar
  39   21   44 1
  40   22   23 ar
  41   22   45 1
  42   23   46 1
  43   24   25 ar
  44   24   29 1
  45   25   26 ar
  46   25   47 1
  47   26   27 ar
  48   26   30 1
  49   27   28 ar
  50   27   48 1
  51   28   49 1

#	End of record

