#	Name: ASD01914321
#	Creating user name:	WinNT
#	Creation time:	15. 06. 2019 20:03

#	Modifying user name:	WinNT
#	Modification time:	15. 06. 2019 20:03

#	Program:	/corina/corina34_cracker 3.40 0067  02.08.2006

@<TRIPOS>MOLECULE
ASD01914321
  38   40    0    0    0
SMALL
NO_CHARGES


@<TRIPOS>ATOM
   1 N1            -0.0566     1.3029    -0.0094 N.pl3   
   2 C2             0.0535    -0.0513    -0.1588 C.2     
   3 C3             1.2061     1.7961     0.1487 C.2     
   4 N4             2.0559     0.7962     0.0994 N.2     
   5 C5             1.3785    -0.3508    -0.0884 C.2     
   6 C6             1.5586     3.2195     0.3425 C.ar    
   7 C7             0.6507     4.2200    -0.0065 C.ar    
   8 C8             0.9856     5.5458     0.1768 C.ar    
   9 C9             2.2185     5.8842     0.7054 C.ar    
  10 C10            3.1234     4.8971     1.0530 C.ar    
  11 C11            2.7982     3.5673     0.8805 C.ar    
  12 C12            1.9728    -1.7060    -0.1987 C.ar    
  13 C13            3.3533    -1.8731    -0.1082 C.ar    
  14 C14            1.1516    -2.8159    -0.3874 C.ar    
  15 C15            1.7085    -4.0742    -0.4895 C.ar    
  16 C16            3.0818    -4.2352    -0.4042 C.ar    
  17 C17            3.9016    -3.1351    -0.2113 C.ar    
  18 C18           -1.2980     2.0807    -0.0228 C.3     
  19 C19           -1.5779     2.5559    -1.4252 C.2     
  20 O20           -2.6711     3.2925    -1.6786 O.3     
  21 O21           -0.8184     2.2738    -2.3216 O.2     
  22 C22           -2.8771     3.7154    -3.0523 C.3     
  23 F23            3.6228    -5.4691    -0.5042 F       
  24 H24           -0.7570    -0.7501    -0.3046 H       
  25 H25           -0.3120     3.9571    -0.4195 H       
  26 H26            0.2839     6.3211    -0.0932 H       
  27 H27            2.4759     6.9235     0.8469 H       
  28 H28            4.0844     5.1677     1.4648 H       
  29 H29            3.5054     2.7976     1.1522 H       
  30 H30            3.9931    -1.0161     0.0422 H       
  31 H31            0.0808    -2.6914    -0.4534 H       
  32 H32            1.0727    -4.9350    -0.6358 H       
  33 H33            4.9717    -3.2651    -0.1454 H       
  34 H34           -2.1222     1.4554     0.3203 H       
  35 H35           -1.1949     2.9410     0.6386 H       
  36 H36           -2.0326     4.3239    -3.3757 H       
  37 H37           -2.9599     2.8382    -3.6940 H       
  38 H38           -3.7937     4.3017    -3.1183 H       
@<TRIPOS>BOND
   1    1    2 1
   2    1    3 1
   3    1   18 1
   4    2    5 2
   5    2   24 1
   6    3    4 2
   7    3    6 1
   8    4    5 1
   9    5   12 1
  10    6    7 ar
  11    6   11 ar
  12    7    8 ar
  13    7   25 1
  14    8    9 ar
  15    8   26 1
  16    9   10 ar
  17    9   27 1
  18   10   11 ar
  19   10   28 1
  20   11   29 1
  21   12   13 ar
  22   12   14 ar
  23   13   17 ar
  24   13   30 1
  25   14   15 ar
  26   14   31 1
  27   15   16 ar
  28   15   32 1
  29   16   17 ar
  30   16   23 1
  31   17   33 1
  32   18   19 1
  33   18   34 1
  34   18   35 1
  35   19   20 1
  36   19   21 2
  37   20   22 1
  38   22   36 1
  39   22   37 1
  40   22   38 1

#	End of record

