#	Name: ASD01470041
#	Creating user name:	WinNT
#	Creation time:	15. 06. 2019 19:21

#	Modifying user name:	WinNT
#	Modification time:	15. 06. 2019 19:21

#	Program:	/corina/corina34_cracker 3.40 0067  02.08.2006

@<TRIPOS>MOLECULE
ASD01470041
  89   95    0    0    0
SMALL
NO_CHARGES


@<TRIPOS>ATOM
   1 N1            -1.6718     1.5193     0.5422 N.am    
   2 C2            -0.3387     1.0856     0.1331 C.3     
   3 C3             0.2280     0.0604     1.1254 C.3     
   4 C4            -0.2250    -1.3546     0.8002 C.3     
   5 C5            -1.6028    -1.3651     0.1588 C.3     
   6 N6            -2.5674    -0.6387     0.9855 N.am    
   7 C7            -2.6163     0.7049     0.9851 C.2     
   8 O8            -3.6269     1.2193     1.4239 O.2     
   9 C9            -3.4952    -1.3895     1.8350 C.3     
  10 C10           -1.9817     2.9489     0.4629 C.3     
  11 C11           -1.7070     3.5972     1.7953 C.ar    
  12 C12           -2.9185    -1.5132     3.2218 C.ar    
  13 C13           -3.0631    -0.4857     4.1081 C.ar    
  14 C14           -2.5276    -0.6019     5.3957 C.ar    
  15 C15           -1.8453    -1.7777     5.7630 C.ar    
  16 C16           -1.7138    -2.8099     4.8371 C.ar    
  17 C17           -2.2494    -2.6750     3.5878 C.ar    
  18 C18           -0.4255     4.0151     2.1083 C.ar    
  19 C19           -0.1632     4.6120     3.3294 C.ar    
  20 C20           -1.1786     4.7941     4.2441 C.ar    
  21 C21           -2.4766     4.3744     3.9352 C.ar    
  22 C22           -2.7346     3.7774     2.6973 C.ar    
  23 C23           -2.4958     0.2724     6.5637 C.2     
  24 N24           -1.8532    -0.3507     7.5097 N.2     
  25 N25           -1.4382    -1.6087     7.0606 N.pl3   
  26 C26           -0.4196     0.4506    -1.2566 C.3     
  27 O27            1.6554     0.1123     1.0820 O.3     
  28 C28            0.4204     1.2463    -2.2221 C.ar    
  29 C29            1.7237     0.8652    -2.4811 C.ar    
  30 C30            2.4943     1.5951    -3.3667 C.ar    
  31 C31            1.9614     2.7059    -3.9937 C.ar    
  32 C32            0.6578     3.0865    -3.7354 C.ar    
  33 C33           -0.1141     2.3540    -2.8531 C.ar    
  34 C34           -2.0704    -2.8125    -0.0069 C.3     
  35 O35           -0.2654    -2.1207     2.0058 O.3     
  36 C36           -1.1563    -3.5288    -0.9673 C.ar    
  37 C37           -0.0075    -4.1408    -0.5020 C.ar    
  38 C38            0.8310    -4.7979    -1.3829 C.ar    
  39 C39            0.5205    -4.8434    -2.7291 C.ar    
  40 C40           -0.6289    -4.2322    -3.1944 C.ar    
  41 C41           -1.4696    -3.5788    -2.3128 C.ar    
  42 C42           -4.5463     5.2724     7.0495 C.ar    
  43 N43           -5.6974     5.6899     6.5603 N.ar    
  44 C44           -6.8048     5.6654     7.2761 C.ar    
  45 C45           -6.7961     5.1971     8.5761 C.ar    
  46 C46           -5.6039     4.7494     9.1250 C.ar    
  47 C47           -4.4607     4.7901     8.3421 C.ar    
  48 C48           -3.5661     4.5646     4.9060 C.2     
  49 C49           -3.3111     5.3157     6.1873 C.3     
  50 O50           -4.6691     4.1171     4.6749 O.2     
  51 H51            0.3236     1.9504     0.0928 H       
  52 H52           -0.1072     0.3174     2.1302 H       
  53 H53            0.4904    -1.8090     0.1149 H       
  54 H54           -1.5454    -0.8948    -0.8229 H       
  55 H55           -4.4492    -0.8645     1.8838 H       
  56 H56           -3.6487    -2.3837     1.4153 H       
  57 H57           -1.3598     3.4136    -0.3023 H       
  58 H58           -3.0328     3.0791     0.2053 H       
  59 H59           -3.5877     0.4124     3.8172 H       
  60 H60           -1.1923    -3.7162     5.1073 H       
  61 H61           -2.1453    -3.4781     2.8733 H       
  62 H62            0.3743     3.8746     1.3963 H       
  63 H63            0.8396     4.9356     3.5664 H       
  64 H64           -0.9722     5.2593     5.1966 H       
  65 H65           -3.7342     3.4507     2.4515 H       
  66 H66           -2.9280     1.2598     6.6314 H       
  67 H67           -0.9421    -2.2576     7.5838 H       
  68 H68           -0.0485    -0.5732    -1.2104 H       
  69 H69           -1.4559     0.4466    -1.5944 H       
  70 H70            2.0900    -0.5082     1.6830 H       
  71 H71            2.1400    -0.0026    -1.9912 H       
  72 H72            3.5127     1.2978    -3.5685 H       
  73 H73            2.5636     3.2766    -4.6851 H       
  74 H74            0.2416     3.9545    -4.2250 H       
  75 H75           -1.1326     2.6514    -2.6513 H       
  76 H76           -2.0470    -3.3148     0.9601 H       
  77 H77           -3.0880    -2.8231    -0.3974 H       
  78 H78            0.5866    -2.1869     2.4584 H       
  79 H79            0.2352    -4.1052     0.5498 H       
  80 H80            1.7290    -5.2754    -1.0194 H       
  81 H81            1.1759    -5.3561    -3.4175 H       
  82 H82           -0.8713    -4.2675    -4.2462 H       
  83 H83           -2.3675    -3.1014    -2.6762 H       
  84 H84           -7.7292     6.0159     6.8412 H       
  85 H85           -7.7062     5.1802     9.1573 H       
  86 H86           -5.5669     4.3783    10.1386 H       
  87 H87           -3.5150     4.4491     8.7370 H       
  88 H88           -3.0643     6.3524     5.9579 H       
  89 H89           -2.4798     4.8537     6.7200 H       
@<TRIPOS>BOND
   1    1    2 1
   2    1   10 1
   3    1    7 am
   4    2    3 1
   5    2   26 1
   6    2   51 1
   7    3    4 1
   8    3   27 1
   9    3   52 1
  10    4    5 1
  11    4   35 1
  12    4   53 1
  13    5    6 1
  14    5   34 1
  15    5   54 1
  16    6    7 am
  17    6    9 1
  18    7    8 2
  19    9   12 1
  20    9   55 1
  21    9   56 1
  22   10   11 1
  23   10   57 1
  24   10   58 1
  25   11   18 ar
  26   11   22 ar
  27   12   13 ar
  28   12   17 ar
  29   13   14 ar
  30   13   59 1
  31   14   15 ar
  32   14   23 1
  33   15   16 ar
  34   15   25 1
  35   16   17 ar
  36   16   60 1
  37   17   61 1
  38   18   19 ar
  39   18   62 1
  40   19   20 ar
  41   19   63 1
  42   20   21 ar
  43   20   64 1
  44   21   22 ar
  45   21   48 1
  46   22   65 1
  47   23   24 2
  48   23   66 1
  49   24   25 1
  50   25   67 1
  51   26   28 1
  52   26   68 1
  53   26   69 1
  54   27   70 1
  55   28   29 ar
  56   28   33 ar
  57   29   30 ar
  58   29   71 1
  59   30   31 ar
  60   30   72 1
  61   31   32 ar
  62   31   73 1
  63   32   33 ar
  64   32   74 1
  65   33   75 1
  66   34   36 1
  67   34   76 1
  68   34   77 1
  69   35   78 1
  70   36   37 ar
  71   36   41 ar
  72   37   38 ar
  73   37   79 1
  74   38   39 ar
  75   38   80 1
  76   39   40 ar
  77   39   81 1
  78   40   41 ar
  79   40   82 1
  80   41   83 1
  81   42   43 ar
  82   42   47 ar
  83   42   49 1
  84   43   44 ar
  85   44   45 ar
  86   44   84 1
  87   45   46 ar
  88   45   85 1
  89   46   47 ar
  90   46   86 1
  91   47   87 1
  92   48   49 1
  93   48   50 2
  94   49   88 1
  95   49   89 1

#	End of record

