#	Name: ASD02500025
#	Creating user name:	WinNT
#	Creation time:	15. 06. 2019 20:22

#	Modifying user name:	WinNT
#	Modification time:	15. 06. 2019 20:22

#	Program:	/corina/corina34_cracker 3.40 0067  02.08.2006

@<TRIPOS>MOLECULE
ASD02500025
  67   70    0    0    0
SMALL
NO_CHARGES


@<TRIPOS>ATOM
   1 C1             5.7692     3.5989     1.2875 C.ar    
   2 C2             6.5795     3.4049     0.1844 C.ar    
   3 C3             6.1734     2.5601    -0.8315 C.ar    
   4 C4             4.9572     1.9088    -0.7442 C.ar    
   5 C5             4.1473     2.1020     0.3593 C.ar    
   6 C6             4.5528     2.9480     1.3745 C.ar    
   7 C7             4.5140     0.9885    -1.8522 C.3     
   8 C8             4.4306    -0.4227    -1.3300 C.2     
   9 Cl9            2.8933     1.5048    -2.4502 Cl      
  10 N10            4.9197    -1.4425    -2.0631 N.am    
  11 O11            3.9234    -0.6407    -0.2502 O.2     
  12 C12            5.4274    -1.2113    -3.4223 C.3     
  13 C13            4.7191    -2.1714    -4.3831 C.3     
  14 C14            4.8926    -3.6074    -3.8831 C.3     
  15 C15            4.2527    -3.7486    -2.5001 C.3     
  16 C16            4.9608    -2.8054    -1.5159 C.3     
  17 C17            4.2159    -4.5722    -4.8589 C.3     
  18 N18            4.4831    -5.9520    -4.4455 N.am    
  19 C19            3.9832    -6.9787    -5.1614 C.2     
  20 N20            4.2290    -8.2482    -4.7811 N.am    
  21 O21            3.3104    -6.7598    -6.1501 O.2     
  22 C22            3.7149    -9.3040    -5.5173 C.2     
  23 S23            2.7614    -9.1341    -6.9174 S.3     
  24 C24            2.6020   -10.8708    -7.1219 C.2     
  25 C25            3.2546   -11.5253    -6.1551 C.2     
  26 C26            3.9089   -10.6254    -5.2217 C.2     
  27 C27            1.8301   -11.5450    -8.2400 C.3     
  28 C28            2.2605   -13.0122    -8.3202 C.3     
  29 C29            2.1905   -13.6307    -6.9208 C.3     
  30 C30            3.3066   -13.0415    -6.0550 C.3     
  31 C31            4.6899   -11.0866    -4.0726 C.2     
  32 O32            5.8831   -11.2918    -4.1910 O.2     
  33 O33            4.0865   -11.2841    -2.8825 O.3     
  34 C34            4.9228   -11.7419    -1.7873 C.3     
  35 C35            4.0690   -11.9080    -0.5286 C.3     
  36 H36            6.0885     4.2555     2.0833 H       
  37 H37            7.5296     3.9138     0.1162 H       
  38 H38            6.8061     2.4091    -1.6936 H       
  39 H39            3.1968     1.5938     0.4271 H       
  40 H40            3.9199     3.0993     2.2365 H       
  41 H41            5.2335     1.0314    -2.6699 H       
  42 H42            5.2240    -0.1821    -3.7182 H       
  43 H43            6.5014    -1.3955    -3.4474 H       
  44 H44            3.6578    -1.9267    -4.4254 H       
  45 H45            5.1545    -2.0775    -5.3780 H       
  46 H46            5.9548    -3.8432    -3.8175 H       
  47 H47            3.1957    -3.4890    -2.5601 H       
  48 H48            4.3561    -4.7773    -2.1547 H       
  49 H49            5.9958    -3.1220    -1.3868 H       
  50 H50            4.4472    -2.8276    -0.5547 H       
  51 H51            3.1405    -4.3945    -4.8583 H       
  52 H52            4.6104    -4.4105    -5.8620 H       
  53 H53            5.0198    -6.1267    -3.6567 H       
  54 H54            4.7657    -8.4229    -3.9923 H       
  55 H55            0.7616   -11.4885    -8.0321 H       
  56 H56            2.0474   -11.0482    -9.1855 H       
  57 H57            1.5924   -13.5520    -8.9913 H       
  58 H58            3.2824   -13.0724    -8.6948 H       
  59 H59            1.2233   -13.4062    -6.4713 H       
  60 H60            2.3176   -14.7109    -6.9932 H       
  61 H61            4.2728   -13.3989    -6.4113 H       
  62 H62            3.1627   -13.3439    -5.0178 H       
  63 H63            5.3732   -12.6992    -2.0497 H       
  64 H64            5.7083   -11.0100    -1.5995 H       
  65 H65            4.6967   -12.2517     0.2935 H       
  66 H66            3.6185   -10.9508    -0.2662 H       
  67 H67            3.2834   -12.6399    -0.7164 H       
@<TRIPOS>BOND
   1    1    2 ar
   2    1    6 ar
   3    1   36 1
   4    2    3 ar
   5    2   37 1
   6    3    4 ar
   7    3   38 1
   8    4    5 ar
   9    4    7 1
  10    5    6 ar
  11    5   39 1
  12    6   40 1
  13    7    8 1
  14    7    9 1
  15    7   41 1
  16    8   10 am
  17    8   11 2
  18   10   12 1
  19   10   16 1
  20   12   13 1
  21   12   42 1
  22   12   43 1
  23   13   14 1
  24   13   44 1
  25   13   45 1
  26   14   15 1
  27   14   17 1
  28   14   46 1
  29   15   16 1
  30   15   47 1
  31   15   48 1
  32   16   49 1
  33   16   50 1
  34   17   18 1
  35   17   51 1
  36   17   52 1
  37   18   19 am
  38   18   53 1
  39   19   20 am
  40   19   21 2
  41   20   22 1
  42   20   54 1
  43   22   23 1
  44   22   26 2
  45   23   24 1
  46   24   25 2
  47   24   27 1
  48   25   26 1
  49   25   30 1
  50   26   31 1
  51   27   28 1
  52   27   55 1
  53   27   56 1
  54   28   29 1
  55   28   57 1
  56   28   58 1
  57   29   30 1
  58   29   59 1
  59   29   60 1
  60   30   61 1
  61   30   62 1
  62   31   32 2
  63   31   33 1
  64   33   34 1
  65   34   35 1
  66   34   63 1
  67   34   64 1
  68   35   65 1
  69   35   66 1
  70   35   67 1

#	End of record

