#	Name: ASD04560216
#	Creating user name:	WinNT
#	Creation time:	15. 06. 2019 20:49

#	Modifying user name:	WinNT
#	Modification time:	15. 06. 2019 20:49

#	Program:	/corina/corina34_cracker 3.40 0067  02.08.2006

@<TRIPOS>MOLECULE
ASD04560216
 335  336    0    0    0
SMALL
NO_CHARGES


@<TRIPOS>ATOM
   1 S1             6.3082    -2.8617    -4.1413 S.3     
   2 S2             9.5034   -20.2670    19.2124 S.3     
   3 O3             5.6643    -8.0936    -2.7036 O.3     
   4 O4             4.7538   -13.1197    10.7500 O.3     
   5 O5             3.9348   -12.5824    15.0252 O.3     
   6 O6             1.6440    -6.5667    -3.9693 O.3     
   7 O7             3.3523    -9.2686     8.9330 O.3     
   8 O8             7.4658   -14.6023    16.9090 O.3     
   9 O9             1.4502   -10.7109     5.1384 O.3     
  10 O10            2.5662    -7.4422     2.2807 O.3     
  11 O11           -1.1256    -7.1661    -0.2473 O.3     
  12 O12           13.6438   -23.9112    37.9009 O.3     
  13 O13            9.9340   -22.7690    35.6583 O.3     
  14 O14           11.4937   -22.4187    31.4701 O.3     
  15 O15            5.2835   -13.6781    21.0901 O.3     
  16 O16            5.5542   -16.6799    20.3912 O.3     
  17 O17           13.7661   -25.8747    42.1303 O.3     
  18 O18           -1.1583    -4.2364     5.3466 O.3     
  19 O19           12.6082   -26.8355    40.5118 O.2     
  20 O20            9.1286   -18.9384    29.9238 O.3     
  21 O21            8.7171   -16.2444    23.5380 O.3     
  22 O22            5.7857   -16.4436    25.7308 O.3     
  23 O23            8.3971   -20.1714    25.6763 O.3     
  24 O24           -1.4823   -11.5687    -4.0919 O.3     
  25 O25           14.5259   -17.4737    30.6680 O.3     
  26 O26           13.2571   -19.3551    25.9880 O.3     
  27 O27           11.1587   -19.7428    25.4139 O.2     
  28 N28            4.3303    -7.0142    -4.2142 N.2     
  29 N29            4.5156   -11.6803    12.5101 N.2     
  30 N30            3.1760   -11.5349     9.1768 N.2     
  31 N31            5.6540   -14.0862    14.9273 N.2     
  32 N32            3.0466    -9.4868     6.2246 N.2     
  33 N33            1.9230    -5.8124    -1.8293 N.2     
  34 N34           -3.2238   -11.4036    10.7061 N.3     
  35 N35            5.7900   -14.7629    18.4558 N.2     
  36 N36            0.9827    -8.6515     3.4016 N.2     
  37 N37            2.2133   -17.7333    13.4721 N.pl3   
  38 N38            8.0864   -12.1747     2.9553 N.3     
  39 N39            1.1111    -7.5858    -0.0298 N.2     
  40 N40           11.9123   -24.6925    39.1728 N.2     
  41 N41           12.0141   -23.7160    35.7141 N.2     
  42 N42           10.5282   -21.4835    33.3193 N.2     
  43 N43            9.7083   -21.1481    29.8348 N.2     
  44 N44            7.7439   -16.4053    20.9879 N.2     
  45 N45            9.9816   -28.0041    33.5374 N.pl3   
  46 N46            7.5029   -18.0784    24.1611 N.2     
  47 N47            9.3046   -18.7319    27.2031 N.2     
  48 N48            3.5044   -23.3304    30.0815 N.3     
  49 N49            2.2758   -20.1136    13.4973 N.pl3   
  50 N50           -1.1004    -5.9536     6.8547 N.2     
  51 N51            0.7643   -18.9763    12.1545 N.2     
  52 N52           10.7282   -30.2620    33.4158 N.pl3   
  53 N53            9.1261   -29.4568    31.9440 N.2     
  54 C54            3.9895   -10.4070   -13.5493 C.3     
  55 C55            4.6975   -10.7732   -12.2434 C.3     
  56 C56            4.4060   -11.3875   -14.6476 C.3     
  57 C57            4.2810    -9.7927   -11.1452 C.3     
  58 C58            3.6979   -11.0213   -15.9535 C.3     
  59 C59            4.9891   -10.1589    -9.8392 C.3     
  60 C60            4.1144   -12.0018   -17.0517 C.3     
  61 C61            4.5726    -9.1784    -8.7410 C.3     
  62 C62            3.4064   -11.6356   -18.3577 C.3     
  63 C63            5.2807    -9.5446    -7.4350 C.3     
  64 C64            3.8229   -12.6161   -19.4559 C.3     
  65 C65            4.8642    -8.5641    -6.3368 C.3     
  66 C66            3.1148   -12.2499   -20.7618 C.3     
  67 C67            5.5722    -8.9303    -5.0309 C.3     
  68 C68            3.5313   -13.2303   -21.8601 C.3     
  69 C69            5.1620    -7.9645    -3.9492 C.2     
  70 C70            3.9315    -6.0754    -3.1626 C.3     
  71 C71            6.6780   -11.3743    13.6109 C.3     
  72 C72            7.3059   -10.7651    12.3556 C.3     
  73 C73            5.5991   -12.3802    13.2047 C.3     
  74 C74            3.0296   -11.3489    10.6226 C.3     
  75 C75            4.3216    -4.6540    -3.5731 C.3     
  76 C76            1.6830   -11.9162    11.0760 C.3     
  77 C77            0.5494   -11.1039    10.4466 C.3     
  78 C78            4.1442   -12.0688    11.3370 C.2     
  79 C79            3.4786   -10.7020     6.9195 C.3     
  80 C80            5.0527   -13.0555    14.4361 C.2     
  81 C81            8.2787    -9.6553    12.7592 C.3     
  82 C82            8.0610   -11.8500    11.5852 C.3     
  83 C83            2.4396    -6.1489    -2.9629 C.2     
  84 C84            4.9451   -10.9853     6.5876 C.3     
  85 C85           -0.7972   -11.6712    10.9001 C.3     
  86 C86            5.8457    -4.5469    -3.6546 C.3     
  87 C87            5.1229   -14.7427    16.1244 C.3     
  88 C88            5.0785   -11.3024     5.0967 C.3     
  89 C89            3.3281   -10.5107     8.4067 C.2     
  90 C90            4.7815   -16.1982    15.7989 C.3     
  91 C91            6.5449   -11.5857     4.7648 C.3     
  92 C92           -1.9308   -10.8589    10.2707 C.3     
  93 C93            3.6439   -16.2388    14.7765 C.3     
  94 C94            6.1567   -14.7021    17.2201 C.2     
  95 C95            1.6273    -8.2880     4.6660 C.3     
  96 C96            6.6784   -11.9027     3.2740 C.3     
  97 C97            3.3026   -17.6943    14.4510 C.3     
  98 C98            2.0717    -9.5381     5.3808 C.2     
  99 C99            0.6338    -7.5244     5.5439 C.3     
 100 C100           0.4727    -5.8840    -1.6351 C.3     
 101 C101          11.7509   -22.2191    40.7624 C.3     
 102 C102          11.9587   -23.6098    41.3653 C.3     
 103 C103          11.5553   -24.6156    36.7755 C.3     
 104 C104           0.8035    -8.5978     0.9838 C.3     
 105 C105          12.7261   -24.4863    40.3735 C.3     
 106 C106          11.6927   -26.0663    36.3092 C.3     
 107 C107           6.7951   -14.7235    19.5209 C.3     
 108 C108           0.2781    -6.1955     4.8743 C.3     
 109 C109           8.1832   -22.3286    31.3387 C.3     
 110 C110           9.3031   -21.2913    31.2353 C.3     
 111 C111           1.4666    -8.2239     2.2844 C.2     
 112 C112           6.9414   -21.8129    30.6088 C.3     
 113 C113          11.6757   -21.9226    34.1172 C.3     
 114 C114          10.7484   -26.3151    35.1314 C.3     
 115 C115           0.1562    -6.9250    -0.5924 C.2     
 116 C116           8.1204    -2.9319    -4.1830 C.3     
 117 C117           1.3236    -9.9596     0.5192 C.3     
 118 C118          12.3924   -24.4034    38.0105 C.2     
 119 C119          10.8575   -21.3904    41.6876 C.3     
 120 C120          13.1049   -21.5244    40.6041 C.3     
 121 C121           5.8214   -22.8502    30.7122 C.3     
 122 C122          12.3590   -20.7042    34.7413 C.3     
 123 C123          11.2038   -22.8480    35.2090 C.2     
 124 C124          10.4835   -21.7430    32.0561 C.2     
 125 C125           6.5361   -13.5145    20.4221 C.3     
 126 C126          10.8858   -27.7658    34.6651 C.3     
 127 C127           6.7105   -15.9867    20.3384 C.2     
 128 C128           0.5726   -10.3898    -0.7146 C.ar    
 129 C129           7.6617   -17.6333    21.7826 C.3     
 130 C130          13.0289   -25.8183    41.0099 C.2     
 131 C131          -0.7004    -5.4433     5.7390 C.2     
 132 C132           4.5796   -22.3345    29.9823 C.3     
 133 C133          12.9387   -19.8401    33.6512 C.ar    
 134 C134           1.7335   -18.9417    13.0254 C.2     
 135 C135          10.0241   -19.8560    27.8071 C.3     
 136 C136           8.6781   -18.6494    21.2579 C.3     
 137 C137           9.6073   -20.0034    29.2478 C.2     
 138 C138           7.7969   -17.7732    25.5635 C.3     
 139 C139           7.9641   -17.3193    23.2251 C.2     
 140 C140           6.4876   -17.5401    26.3200 C.3     
 141 C141           1.0445   -10.0409    -1.9665 C.ar    
 142 C142          -0.5839   -11.1376    -0.5928 C.ar    
 143 C143          11.5300   -19.5950    27.7360 C.3     
 144 C144          12.1749   -18.8344    33.0882 C.ar    
 145 C145          14.2353   -20.0506    33.2197 C.ar    
 146 C146           8.5370   -18.9295    26.1848 C.2     
 147 C147           8.2983   -19.0623    19.8344 C.3     
 148 C148           0.3583   -10.4344    -3.0990 C.ar    
 149 C149          -1.2739   -11.5336    -1.7222 C.ar    
 150 C150          12.7041   -18.0406    32.0891 C.ar    
 151 C151          14.7691   -19.2595    32.2209 C.ar    
 152 C152           6.7946   -17.2213    27.7846 C.3     
 153 C153           9.9306   -29.2448    32.9474 C.2     
 154 C154          -0.8053   -11.1803    -2.9794 C.ar    
 155 C155          14.0030   -18.2532    31.6507 C.ar    
 156 C156          11.9680   -19.5698    26.2942 C.2     
 157 C157           8.8940   -20.6289    17.5426 C.3     
 158 H158           2.9104   -10.4602   -13.4049 H       
 159 H159           4.2674    -9.3944   -13.8418 H       
 160 H160           4.4196   -11.7857   -11.9509 H       
 161 H161           5.7766   -10.7199   -12.3878 H       
 162 H162           5.4851   -11.3342   -14.7920 H       
 163 H163           4.1280   -12.4000   -14.3551 H       
 164 H164           4.5590    -8.7801   -11.4376 H       
 165 H165           3.2020    -9.8459   -11.0007 H       
 166 H166           2.6189   -11.0745   -15.8090 H       
 167 H167           3.9759   -10.0087   -16.2459 H       
 168 H168           4.7112   -11.1714    -9.5468 H       
 169 H169           6.0682   -10.1056    -9.9837 H       
 170 H170           5.1935   -11.9485   -17.1962 H       
 171 H171           3.8365   -13.0143   -16.7593 H       
 172 H172           4.8505    -8.1658    -9.0334 H       
 173 H173           3.4935    -9.2316    -8.5965 H       
 174 H174           2.3273   -11.6888   -18.2132 H       
 175 H175           3.6843   -10.6230   -18.6501 H       
 176 H176           5.0027   -10.5572    -7.1426 H       
 177 H177           6.3597    -9.4913    -7.5795 H       
 178 H178           4.9019   -12.5628   -19.6003 H       
 179 H179           3.5449   -13.6286   -19.1635 H       
 180 H180           5.1421    -7.5515    -6.6292 H       
 181 H181           3.7851    -8.6173    -6.1924 H       
 182 H182           2.0357   -12.3031   -20.6174 H       
 183 H183           3.3927   -11.2373   -21.0543 H       
 184 H184           5.2943    -9.9429    -4.7384 H       
 185 H185           6.6513    -8.8770    -5.1753 H       
 186 H186           4.6104   -13.1771   -22.0045 H       
 187 H187           3.2534   -14.2429   -21.5676 H       
 188 H188           3.0269   -12.9695   -22.7904 H       
 189 H189           4.4359    -6.3362    -2.2322 H       
 190 H190           7.4476   -11.8819    14.1923 H       
 191 H191           6.2297   -10.5840    14.2130 H       
 192 H192           6.5221   -10.3488    11.7228 H       
 193 H193           6.0318   -13.1291    12.5413 H       
 194 H194           3.0739   -10.2857    10.8585 H       
 195 H195           3.8887    -4.4253    -4.5469 H       
 196 H196           3.9467    -3.9465    -2.8336 H       
 197 H197           1.6025   -12.9567    10.7613 H       
 198 H198           1.6116   -11.8586    12.1621 H       
 199 H199           6.2784    -8.8336    -2.6019 H       
 200 H200           0.6299   -10.0634    10.7614 H       
 201 H201           0.6208   -11.1615     9.3605 H       
 202 H202           2.8642   -11.5427     6.5973 H       
 203 H203           7.3679   -12.6407    11.2977 H       
 204 H204           9.1020   -10.0839    13.3307 H       
 205 H205           8.6705    -9.1724    11.8640 H       
 206 H206           7.7567    -8.9190    13.3703 H       
 207 H207           8.5083   -11.4160    10.6910 H       
 208 H208           8.8448   -12.2663    12.2181 H       
 209 H209           5.5478   -10.1095     6.8281 H       
 210 H210           5.2920   -11.8370     7.1726 H       
 211 H211          -0.8777   -12.7117    10.5854 H       
 212 H212          -0.8686   -11.6136    11.9862 H       
 213 H213           6.2206    -5.2545    -4.3941 H       
 214 H214           6.2786    -4.7756    -2.6808 H       
 215 H215           4.2231   -14.2235    16.4545 H       
 216 H216           4.4758   -12.1782     4.8562 H       
 217 H217           4.7315   -10.4507     4.5117 H       
 218 H218           5.6598   -16.6935    15.3850 H       
 219 H219           4.4704   -16.7107    16.7092 H       
 220 H220           7.1476   -10.7099     5.0054 H       
 221 H221           6.8919   -12.4374     5.3499 H       
 222 H222          -1.8595   -10.9165     9.1846 H       
 223 H223          -1.8504    -9.8185    10.5854 H       
 224 H224           2.7656   -15.7434    15.1904 H       
 225 H225           3.9550   -15.7263    13.8663 H       
 226 H226           2.4932    -7.6575     4.4642 H       
 227 H227           6.3314   -11.0510     2.6889 H       
 228 H228           6.0757   -12.7785     3.0335 H       
 229 H229           2.9915   -18.2069    15.3613 H       
 230 H230           4.1809   -18.1897    14.0372 H       
 231 H231           4.4075   -13.3359     9.8735 H       
 232 H232          -0.2700    -8.1199     5.6723 H       
 233 H233           1.0833    -7.3315     6.5180 H       
 234 H234           3.5562   -11.8085    14.5860 H       
 235 H235           2.1212    -6.7965    -4.7784 H       
 236 H236           0.1022    -4.9138    -1.3041 H       
 237 H237          -0.0069    -6.1544    -2.5758 H       
 238 H238          11.2748   -22.3136    39.7864 H       
 239 H239          12.5287   -23.5233    42.2904 H       
 240 H240          10.9900   -24.0627    41.5765 H       
 241 H241           3.4705    -8.5665     8.2786 H       
 242 H242          -3.2883   -11.4209    11.7129 H       
 243 H243          -3.9891   -10.8838    10.3035 H       
 244 H244          10.5106   -24.4048    37.0040 H       
 245 H245          -0.2756    -8.6510     1.1283 H       
 246 H246          13.6592   -23.9938    40.0998 H       
 247 H247          12.7203   -26.2516    35.9964 H       
 248 H248          11.4359   -26.7373    37.1289 H       
 249 H249           7.7886   -14.6419    19.0801 H       
 250 H250           1.1820    -5.6000     4.7459 H       
 251 H251          -0.1714    -6.3883     3.9002 H       
 252 H252           8.5104   -23.2632    30.8832 H       
 253 H253           7.9428   -22.5004    32.3879 H       
 254 H254           8.9457   -20.3322    31.6101 H       
 255 H255           1.8307   -16.9064    13.1392 H       
 256 H256           6.6141   -20.8783    31.0643 H       
 257 H257           7.1817   -21.6411    29.5596 H       
 258 H258          12.3840   -22.4479    33.4766 H       
 259 H259           9.7208   -26.1298    35.4442 H       
 260 H260          11.0053   -25.6441    34.3117 H       
 261 H261           8.4964    -3.2010    -3.1960 H       
 262 H262           8.4384    -3.6799    -4.9093 H       
 263 H263           8.5152    -1.9570    -4.4689 H       
 264 H264           2.3864    -9.8835     0.2895 H       
 265 H265           1.1744   -10.6946     1.3101 H       
 266 H266           8.4503   -12.9188     3.5315 H       
 267 H267           8.2008   -12.3871     1.9756 H       
 268 H268          13.7414   -22.1148    39.9450 H       
 269 H269          10.6495   -20.4261    41.2238 H       
 270 H270           9.9208   -21.9207    41.8590 H       
 271 H271          11.3658   -21.2338    42.6390 H       
 272 H272          12.9569   -20.5336    40.1746 H       
 273 H273          13.5810   -21.4298    41.5801 H       
 274 H274           6.1487   -23.7848    30.2567 H       
 275 H275           5.5811   -23.0220    31.7614 H       
 276 H276          11.6283   -20.1297    35.3105 H       
 277 H277          13.1574   -21.0358    35.4053 H       
 278 H278           7.6425   -14.5629    15.9591 H       
 279 H279           6.5092   -12.6089    19.8161 H       
 280 H280           7.3339   -13.4341    21.1604 H       
 281 H281           0.7333   -10.6500     4.4924 H       
 282 H282          10.6290   -28.4368    35.4848 H       
 283 H283          11.9134   -27.9511    34.3523 H       
 284 H284           6.6576   -18.0502    21.7043 H       
 285 H285           4.8200   -22.1627    28.9331 H       
 286 H286           4.2524   -21.3999    30.4378 H       
 287 H287           9.7882   -20.7718    27.2651 H       
 288 H288           9.6714   -18.2005    21.2532 H       
 289 H289           8.6796   -19.5281    21.9029 H       
 290 H290           8.4130   -16.8757    25.6185 H       
 291 H291           9.4189   -27.2864    33.2070 H       
 292 H292           2.8536    -7.1718     1.3979 H       
 293 H293          -1.7696    -6.6229    -0.7219 H       
 294 H294           5.8714   -18.4375    26.2650 H       
 295 H295           1.9502    -9.4599    -2.0591 H       
 296 H296          -0.9480   -11.4127     0.3860 H       
 297 H297          11.7547   -18.6350    28.2008 H       
 298 H298          12.0614   -20.3872    28.2633 H       
 299 H299          13.9151   -23.7253    36.9915 H       
 300 H300          11.1636   -18.6695    33.4296 H       
 301 H301          14.8314   -20.8339    33.6642 H       
 302 H302           8.2968   -18.1836    19.1894 H       
 303 H303           7.3051   -19.5112    19.8392 H       
 304 H304           9.4033   -22.0897    35.2202 H       
 305 H305          11.3710   -22.5654    30.5222 H       
 306 H306           5.0538   -12.9469    21.6798 H       
 307 H307           4.8373   -16.2890    19.8732 H       
 308 H308           2.6725   -23.0130    29.6068 H       
 309 H309           3.8056   -24.2247    29.7242 H       
 310 H310           2.9970   -20.0878    14.1455 H       
 311 H311           1.9372   -20.9662    13.1822 H       
 312 H312           0.7270   -10.1613    -4.0766 H       
 313 H313          -2.1770   -12.1181    -1.6267 H       
 314 H314          13.9340   -26.7516    42.5017 H       
 315 H315          12.1070   -17.2554    31.6494 H       
 316 H316          15.7821   -19.4241    31.8845 H       
 317 H317          -0.8026    -3.9374     4.4986 H       
 318 H318          -1.7302    -5.4694     7.4113 H       
 319 H319           7.4108   -16.3238    27.8396 H       
 320 H320           5.8619   -17.0552    28.3235 H       
 321 H321           7.3300   -18.0576    28.2340 H       
 322 H322           0.4258   -19.8289    11.8393 H       
 323 H323           9.0903   -18.1257    29.4013 H       
 324 H324           9.0166   -15.7373    22.7710 H       
 325 H325           5.5579   -16.5767    24.8005 H       
 326 H326           7.8025   -20.2202    24.9154 H       
 327 H327          11.3269   -30.1043    34.1625 H       
 328 H328          10.6922   -31.1374    32.9995 H       
 329 H329           9.5523   -21.3545    17.0648 H       
 330 H330           7.8858   -21.0386    17.6046 H       
 331 H331           8.8776   -19.7110    16.9549 H       
 332 H332           9.0901   -30.3322    31.5278 H       
 333 H333          -1.2038   -12.4257    -4.4427 H       
 334 H334          14.9753   -16.6811    30.9919 H       
 335 H335          13.4901   -19.3478    25.0495 H       
@<TRIPOS>BOND
   1    1   86 1
   2    1  116 1
   3    2  147 1
   4    2  157 1
   5    3   69 1
   6    3  199 1
   7    4   78 1
   8    4  231 1
   9    5   80 1
  10    5  234 1
  11    6   83 1
  12    6  235 1
  13    7   89 1
  14    7  241 1
  15    8   94 1
  16    8  278 1
  17    9   98 1
  18    9  281 1
  19   10  111 1
  20   10  292 1
  21   11  115 1
  22   11  293 1
  23   12  118 1
  24   12  299 1
  25   13  123 1
  26   13  304 1
  27   14  124 1
  28   14  305 1
  29   15  125 1
  30   15  306 1
  31   16  127 1
  32   16  307 1
  33   17  130 1
  34   17  314 1
  35   18  131 1
  36   18  317 1
  37   19  130 2
  38   20  137 1
  39   20  323 1
  40   21  139 1
  41   21  324 1
  42   22  325 1
  43   22  140 1
  44   23  146 1
  45   23  326 1
  46   24  154 1
  47   24  333 1
  48   25  155 1
  49   25  334 1
  50   26  156 1
  51   26  335 1
  52   27  156 2
  53   28   69 2
  54   28   70 1
  55   29   78 2
  56   29   73 1
  57   30   89 2
  58   30   74 1
  59   31   80 2
  60   31   87 1
  61   32   98 2
  62   32   79 1
  63   33   83 2
  64   33  100 1
  65   34   92 1
  66   34  242 1
  67   34  243 1
  68   35   94 2
  69   35  107 1
  70   36  111 2
  71   36   95 1
  72   37   97 1
  73   37  134 1
  74   37  255 1
  75   38   96 1
  76   38  266 1
  77   38  267 1
  78   39  115 2
  79   39  104 1
  80   40  118 2
  81   40  105 1
  82   41  123 2
  83   41  103 1
  84   42  124 2
  85   42  113 1
  86   43  137 2
  87   43  110 1
  88   44  127 2
  89   44  129 1
  90   45  126 1
  91   45  153 1
  92   45  291 1
  93   46  139 2
  94   46  138 1
  95   47  146 2
  96   47  135 1
  97   48  132 1
  98   48  308 1
  99   48  309 1
 100   49  134 1
 101   49  310 1
 102   49  311 1
 103   50  131 2
 104   50  318 1
 105   51  134 2
 106   51  322 1
 107   52  153 1
 108   52  327 1
 109   52  328 1
 110   53  153 2
 111   53  332 1
 112   54   55 1
 113   54   56 1
 114   54  158 1
 115   54  159 1
 116   55   57 1
 117   55  160 1
 118   55  161 1
 119   56   58 1
 120   56  162 1
 121   56  163 1
 122   57   59 1
 123   57  164 1
 124   57  165 1
 125   58   60 1
 126   58  166 1
 127   58  167 1
 128   59   61 1
 129   59  168 1
 130   59  169 1
 131   60   62 1
 132   60  170 1
 133   60  171 1
 134   61   63 1
 135   61  172 1
 136   61  173 1
 137   62   64 1
 138   62  174 1
 139   62  175 1
 140   63   65 1
 141   63  176 1
 142   63  177 1
 143   64   66 1
 144   64  178 1
 145   64  179 1
 146   65   67 1
 147   65  180 1
 148   65  181 1
 149   66   68 1
 150   66  182 1
 151   66  183 1
 152   67   69 1
 153   67  184 1
 154   67  185 1
 155   68  186 1
 156   68  187 1
 157   68  188 1
 158   70   75 1
 159   70   83 1
 160   70  189 1
 161   71   72 1
 162   71   73 1
 163   71  190 1
 164   71  191 1
 165   72   81 1
 166   72   82 1
 167   72  192 1
 168   73   80 1
 169   73  193 1
 170   74   76 1
 171   74   78 1
 172   74  194 1
 173   75   86 1
 174   75  195 1
 175   75  196 1
 176   76   77 1
 177   76  197 1
 178   76  198 1
 179   77   85 1
 180   77  200 1
 181   77  201 1
 182   79   84 1
 183   79   89 1
 184   79  202 1
 185   81  204 1
 186   81  205 1
 187   81  206 1
 188   82  203 1
 189   82  207 1
 190   82  208 1
 191   84   88 1
 192   84  209 1
 193   84  210 1
 194   85   92 1
 195   85  211 1
 196   85  212 1
 197   86  213 1
 198   86  214 1
 199   87   90 1
 200   87   94 1
 201   87  215 1
 202   88   91 1
 203   88  216 1
 204   88  217 1
 205   90   93 1
 206   90  218 1
 207   90  219 1
 208   91   96 1
 209   91  220 1
 210   91  221 1
 211   92  222 1
 212   92  223 1
 213   93   97 1
 214   93  224 1
 215   93  225 1
 216   95   98 1
 217   95   99 1
 218   95  226 1
 219   96  227 1
 220   96  228 1
 221   97  229 1
 222   97  230 1
 223   99  108 1
 224   99  232 1
 225   99  233 1
 226  100  115 1
 227  100  236 1
 228  100  237 1
 229  101  102 1
 230  101  119 1
 231  101  120 1
 232  101  238 1
 233  102  105 1
 234  102  239 1
 235  102  240 1
 236  103  106 1
 237  103  118 1
 238  103  244 1
 239  104  111 1
 240  104  117 1
 241  104  245 1
 242  105  130 1
 243  105  246 1
 244  106  114 1
 245  106  247 1
 246  106  248 1
 247  107  125 1
 248  107  127 1
 249  107  249 1
 250  108  131 1
 251  108  250 1
 252  108  251 1
 253  109  110 1
 254  109  112 1
 255  109  252 1
 256  109  253 1
 257  110  124 1
 258  110  254 1
 259  112  121 1
 260  112  256 1
 261  112  257 1
 262  113  122 1
 263  113  123 1
 264  113  258 1
 265  114  126 1
 266  114  259 1
 267  114  260 1
 268  116  261 1
 269  116  262 1
 270  116  263 1
 271  117  128 1
 272  117  264 1
 273  117  265 1
 274  119  269 1
 275  119  270 1
 276  119  271 1
 277  120  268 1
 278  120  272 1
 279  120  273 1
 280  121  132 1
 281  121  274 1
 282  121  275 1
 283  122  133 1
 284  122  276 1
 285  122  277 1
 286  125  279 1
 287  125  280 1
 288  126  282 1
 289  126  283 1
 290  128  141 ar
 291  128  142 ar
 292  129  136 1
 293  129  139 1
 294  129  284 1
 295  132  285 1
 296  132  286 1
 297  133  144 ar
 298  133  145 ar
 299  135  137 1
 300  135  143 1
 301  135  287 1
 302  136  147 1
 303  136  288 1
 304  136  289 1
 305  138  140 1
 306  138  146 1
 307  138  290 1
 308  140  152 1
 309  140  294 1
 310  141  148 ar
 311  141  295 1
 312  142  149 ar
 313  142  296 1
 314  143  156 1
 315  143  297 1
 316  143  298 1
 317  144  150 ar
 318  144  300 1
 319  145  151 ar
 320  145  301 1
 321  147  302 1
 322  147  303 1
 323  148  154 ar
 324  148  312 1
 325  149  154 ar
 326  149  313 1
 327  150  155 ar
 328  150  315 1
 329  151  155 ar
 330  151  316 1
 331  152  319 1
 332  152  320 1
 333  152  321 1
 334  157  329 1
 335  157  330 1
 336  157  331 1

#	End of record

