#	Name: ASD01915800
#	Creating user name:	WinNT
#	Creation time:	15. 06. 2019 20:06

#	Modifying user name:	WinNT
#	Modification time:	15. 06. 2019 20:06

#	Program:	/corina/corina34_cracker 3.40 0067  02.08.2006

@<TRIPOS>MOLECULE
ASD01915800
  48   51    0    0    0
SMALL
NO_CHARGES


@<TRIPOS>ATOM
   1 C1            -0.0043     1.4635     0.2188 C.2     
   2 N2             0.0619     0.1106    -0.0289 N.pl3   
   3 C3            -1.1504    -0.6735    -0.2938 C.3     
   4 C4            -2.3297    -0.0464     0.4480 C.3     
   5 N5            -2.4044     1.3988     0.2637 N.am    
   6 C6            -1.2918     2.1723     0.2691 C.2     
   7 C7             1.2783     1.9008     0.3960 C.2     
   8 C8             2.0746     0.7565     0.2537 C.2     
   9 N9             1.2817    -0.2607     0.0092 N.2     
  10 C10            3.5768     0.7031     0.3623 C.3     
  11 O11            4.0814     2.0116     0.6363 O.3     
  12 C12            5.4282     2.1390     0.7651 C.ar    
  13 O13           -1.3546     3.3862     0.3130 O.2     
  14 C14            5.9864     3.3809     1.0314 C.ar    
  15 C15            6.2469     1.0265     0.6361 C.ar    
  16 C16            7.6157     1.1587     0.7673 C.ar    
  17 C17            8.1700     2.3984     1.0271 C.ar    
  18 C18            7.3558     3.5078     1.1618 C.ar    
  19 C19           -3.6499     1.9982     0.0771 C.ar    
  20 N20           -3.7160     3.2601    -0.3200 N.ar    
  21 C21           -4.8060     1.2635     0.3044 C.ar    
  22 C22           -6.0395     1.8660     0.1164 C.ar    
  23 C23           -6.0738     3.1922    -0.2954 C.ar    
  24 C24           -4.8755     3.8673    -0.5097 C.ar    
  25 O25           -4.8972     5.1637    -0.9122 O.3     
  26 C26           -3.6345     5.8012    -1.1151 C.3     
  27 O27           -7.2639     3.8219    -0.4923 O.3     
  28 C28           -8.4486     3.0583    -0.2565 C.3     
  29 H29           -1.3546    -0.6773    -1.3645 H       
  30 H30           -1.0050    -1.6966     0.0530 H       
  31 H31           -3.2537    -0.4960     0.0845 H       
  32 H32           -2.2308    -0.2611     1.5121 H       
  33 H33            1.6067     2.9090     0.6008 H       
  34 H34            3.8589     0.0283     1.1705 H       
  35 H35            3.9963     0.3411    -0.5764 H       
  36 H36            5.3509     4.2478     1.1363 H       
  37 H37            5.8144     0.0578     0.4335 H       
  38 H38            8.2534     0.2928     0.6674 H       
  39 H39            9.2404     2.4997     1.1294 H       
  40 H40            7.7911     4.4752     1.3643 H       
  41 H41           -4.7444     0.2336     0.6238 H       
  42 H42           -6.9539     1.3167     0.2859 H       
  43 H43           -3.7945     6.8311    -1.4343 H       
  44 H44           -3.0696     5.7934    -0.1828 H       
  45 H45           -3.0761     5.2655    -1.8827 H       
  46 H46           -8.4616     2.1936    -0.9200 H       
  47 H47           -8.4635     2.7214     0.7799 H       
  48 H48           -9.3245     3.6777    -0.4498 H       
@<TRIPOS>BOND
   1    1    2 1
   2    1    7 2
   3    1    6 1
   4    2    3 1
   5    2    9 1
   6    3    4 1
   7    3   29 1
   8    3   30 1
   9    4    5 1
  10    4   31 1
  11    4   32 1
  12    5    6 am
  13    5   19 1
  14    6   13 2
  15    7    8 1
  16    7   33 1
  17    8    9 2
  18    8   10 1
  19   10   11 1
  20   10   34 1
  21   10   35 1
  22   11   12 1
  23   12   14 ar
  24   12   15 ar
  25   14   18 ar
  26   14   36 1
  27   15   16 ar
  28   15   37 1
  29   16   17 ar
  30   16   38 1
  31   17   18 ar
  32   17   39 1
  33   18   40 1
  34   19   21 ar
  35   19   20 ar
  36   20   24 ar
  37   21   22 ar
  38   21   41 1
  39   22   23 ar
  40   22   42 1
  41   23   24 ar
  42   23   27 1
  43   24   25 1
  44   25   26 1
  45   26   43 1
  46   26   44 1
  47   26   45 1
  48   27   28 1
  49   28   46 1
  50   28   47 1
  51   28   48 1

#	End of record

