#	Name: ASD03330950
#	Creating user name:	WinNT
#	Creation time:	15. 06. 2019 20:38

#	Modifying user name:	WinNT
#	Modification time:	15. 06. 2019 20:38

#	Program:	/corina/corina34_cracker 3.40 0067  02.08.2006

@<TRIPOS>MOLECULE
ASD03330950
  74   77    0    0    0
SMALL
NO_CHARGES


@<TRIPOS>ATOM
   1 N1             0.0702     1.1528    -0.7547 N.pl3   
   2 C2             0.0736    -0.1812    -0.4922 C.2     
   3 C3             1.2944    -1.0163    -0.2065 C.3     
   4 N4             2.1307    -0.3240     0.7863 N.3     
   5 C5             3.0823     0.5813     0.1391 C.3     
   6 C6             2.4832     1.1897    -1.1256 C.3     
   7 C7             1.2498     2.0227    -0.7662 C.3     
   8 C8            -1.2230     1.5199    -0.9890 C.2     
   9 N9            -1.9887     0.4620    -0.8591 N.2     
  10 C10           -1.2193    -0.6046    -0.5497 C.2     
  11 C11           -1.6941    -1.9800    -0.3168 C.2     
  12 O12           -0.8997    -2.8596    -0.0440 O.2     
  13 N13           -3.0087    -2.2632    -0.4060 N.am    
  14 C14            2.8251    -1.2861     1.6524 C.3     
  15 C15           -4.7876    -3.8397    -0.8952 C.2     
  16 C16           -3.4808    -3.6306    -0.1743 C.3     
  17 C17           -3.6846    -3.8526     1.3257 C.3     
  18 C18           -4.7801    -2.9143     1.8359 C.3     
  19 O19           -5.4220    -2.8844    -1.2900 O.2     
  20 C20           -4.0994    -5.3040     1.5747 C.3     
  21 C21           -2.3779    -3.5613     2.0665 C.3     
  22 N22           -5.2514    -5.0883    -1.1011 N.am    
  23 C23           -6.5594    -5.2896    -1.7294 C.3     
  24 C24           -6.5953    -6.6623    -2.4041 C.3     
  25 C25           -7.9613    -6.8725    -3.0603 C.3     
  26 C26           -9.0560    -6.7995    -1.9940 C.3     
  27 C27           -9.0201    -5.4268    -1.3193 C.3     
  28 C28           -7.6541    -5.2166    -0.6631 C.3     
  29 O29           -5.5728    -6.7305    -3.4001 O.3     
  30 C30           -1.6847     2.8826    -1.3316 C.ar    
  31 C31           -2.5860     3.0748    -2.3821 C.ar    
  32 C32           -3.0135     4.3510    -2.6964 C.ar    
  33 C33           -2.5510     5.4356    -1.9737 C.ar    
  34 C34           -1.6576     5.2513    -0.9322 C.ar    
  35 C35           -1.2268     3.9809    -0.6040 C.ar    
  36 F36           -3.0381     2.0159    -3.0890 F       
  37 Cl37          -1.0825     6.6199    -0.0323 Cl      
  38 H38            0.9886    -1.9857     0.1871 H       
  39 H39            1.8622    -1.1580    -1.1261 H       
  40 H40            3.3438     1.3810     0.8321 H       
  41 H41            3.9832     0.0264    -0.1225 H       
  42 H42            3.2241     1.8283    -1.6066 H       
  43 H43            2.1948     0.3919    -1.8101 H       
  44 H44            1.1140     2.8110    -1.5066 H       
  45 H45            1.3848     2.4667     0.2200 H       
  46 H46           -3.6423    -1.5617    -0.6235 H       
  47 H47            3.4083    -1.9725     1.0387 H       
  48 H48            3.4897    -0.7507     2.3305 H       
  49 H49            2.0924    -1.8488     2.2309 H       
  50 H50           -2.7417    -4.3385    -0.5493 H       
  51 H51           -5.7110    -3.1218     1.3082 H       
  52 H52           -4.9253    -3.0724     2.9046 H       
  53 H53           -4.4846    -1.8802     1.6585 H       
  54 H54           -3.3090    -5.9718     1.2320 H       
  55 H55           -4.2667    -5.4563     2.6410 H       
  56 H56           -5.0182    -5.5181     1.0286 H       
  57 H57           -2.0824    -2.5273     1.8890 H       
  58 H58           -2.5231    -3.7195     3.1351 H       
  59 H59           -1.5974    -4.2298     1.7030 H       
  60 H60           -4.7191    -5.8537    -0.8332 H       
  61 H61           -6.7271    -4.5133    -2.4760 H       
  62 H62           -6.4275    -7.4386    -1.6575 H       
  63 H63           -8.1290    -6.0963    -3.8069 H       
  64 H64           -7.9869    -7.8505    -3.5410 H       
  65 H65          -10.0292    -6.9493    -2.4615 H       
  66 H66           -8.8883    -7.5758    -1.2474 H       
  67 H67           -9.1878    -4.6505    -2.0659 H       
  68 H68           -9.8000    -5.3748    -0.5596 H       
  69 H69           -7.4864    -5.9928     0.0835 H       
  70 H70           -7.6285    -4.2386    -0.1824 H       
  71 H71           -5.5368    -7.5750    -3.8697 H       
  72 H72           -3.7098     4.5016    -3.5081 H       
  73 H73           -2.8880     6.4309    -2.2231 H       
  74 H74           -0.5336     3.8386     0.2118 H       
@<TRIPOS>BOND
   1    1    2 1
   2    1    7 1
   3    1    8 1
   4    2    3 1
   5    2   10 2
   6    3    4 1
   7    3   38 1
   8    3   39 1
   9    4    5 1
  10    4   14 1
  11    5    6 1
  12    5   40 1
  13    5   41 1
  14    6    7 1
  15    6   42 1
  16    6   43 1
  17    7   44 1
  18    7   45 1
  19    8    9 2
  20    8   30 1
  21    9   10 1
  22   10   11 1
  23   11   12 2
  24   11   13 am
  25   13   16 1
  26   13   46 1
  27   14   47 1
  28   14   48 1
  29   14   49 1
  30   15   19 2
  31   15   22 am
  32   15   16 1
  33   16   17 1
  34   16   50 1
  35   17   18 1
  36   17   20 1
  37   17   21 1
  38   18   51 1
  39   18   52 1
  40   18   53 1
  41   20   54 1
  42   20   55 1
  43   20   56 1
  44   21   57 1
  45   21   58 1
  46   21   59 1
  47   22   23 1
  48   22   60 1
  49   23   24 1
  50   23   28 1
  51   23   61 1
  52   24   25 1
  53   24   29 1
  54   24   62 1
  55   25   26 1
  56   25   63 1
  57   25   64 1
  58   26   27 1
  59   26   65 1
  60   26   66 1
  61   27   28 1
  62   27   67 1
  63   27   68 1
  64   28   69 1
  65   28   70 1
  66   29   71 1
  67   30   31 ar
  68   30   35 ar
  69   31   32 ar
  70   31   36 1
  71   32   33 ar
  72   32   72 1
  73   33   34 ar
  74   33   73 1
  75   34   35 ar
  76   34   37 1
  77   35   74 1

#	End of record

