#	Name: ASD01916273
#	Creating user name:	WinNT
#	Creation time:	15. 06. 2019 20:07

#	Modifying user name:	WinNT
#	Modification time:	15. 06. 2019 20:07

#	Program:	/corina/corina34_cracker 3.40 0067  02.08.2006

@<TRIPOS>MOLECULE
ASD01916273
  38   40    0    0    0
SMALL
NO_CHARGES


@<TRIPOS>ATOM
   1 C1            -0.0488     1.3252    -0.2461 C.ar    
   2 C2             0.0367    -0.0536    -0.1716 C.ar    
   3 C3             1.2308    -0.6579     0.1707 C.ar    
   4 C4             2.3547     0.1239     0.4423 C.ar    
   5 C5             2.2664     1.5144     0.3665 C.ar    
   6 C6             1.0646     2.1103     0.0225 C.ar    
   7 O7             0.9749     3.4642    -0.0522 O.3     
   8 C8             1.4707     4.0763    -1.1597 C.ar    
   9 C9             1.4053     5.4588    -1.3005 C.ar    
  10 N10            1.8995     6.0168    -2.3933 N.ar    
  11 C11            2.4477     5.2815    -3.3397 C.ar    
  12 N12            2.5281     3.9696    -3.2435 N.ar    
  13 C13            2.0620     3.3371    -2.1792 C.ar    
  14 Cl14          -1.3606    -1.0270    -0.5085 Cl      
  15 C15            3.6342    -0.5191     0.8093 C.2     
  16 N16            3.7168    -1.8623     0.8822 N.am    
  17 O17            4.6117     0.1637     1.0454 O.2     
  18 C18            4.9457    -2.4725     1.1238 C.ar    
  19 C19            5.0456    -3.8573     1.0819 C.ar    
  20 C20            7.3611    -3.6436     1.5990 C.ar    
  21 C21            7.1928    -2.2657     1.6202 C.ar    
  22 N22            6.0080    -1.7260     1.3857 N.ar    
  23 C23            6.2722    -4.4546     1.3231 C.ar    
  24 O24            8.2538    -1.4642     1.8899 O.3     
  25 C25            8.0169    -0.0550     1.8973 C.3     
  26 H26           -0.9836     1.7924    -0.5186 H       
  27 H27            1.2946    -1.7344     0.2285 H       
  28 H28            3.1328     2.1242     0.5759 H       
  29 H29            0.9572     6.0675    -0.5291 H       
  30 H30            2.8420     5.7679    -4.2196 H       
  31 H31            2.1312     2.2617    -2.1070 H       
  32 H32            2.9207    -2.4042     0.7665 H       
  33 H33            4.1772    -4.4613     0.8642 H       
  34 H34            8.3310    -4.0782     1.7908 H       
  35 H35            6.3773    -5.5292     1.2969 H       
  36 H36            7.6552     0.2577     0.9178 H       
  37 H37            7.2695     0.1839     2.6539 H       
  38 H38            8.9454     0.4683     2.1258 H       
@<TRIPOS>BOND
   1    1    2 ar
   2    1    6 ar
   3    1   26 1
   4    2    3 ar
   5    2   14 1
   6    3    4 ar
   7    3   27 1
   8    4    5 ar
   9    4   15 1
  10    5    6 ar
  11    5   28 1
  12    6    7 1
  13    7    8 1
  14    8    9 ar
  15    8   13 ar
  16    9   10 ar
  17    9   29 1
  18   10   11 ar
  19   11   12 ar
  20   11   30 1
  21   12   13 ar
  22   13   31 1
  23   15   16 am
  24   15   17 2
  25   16   18 1
  26   16   32 1
  27   18   19 ar
  28   18   22 ar
  29   19   23 ar
  30   19   33 1
  31   20   21 ar
  32   20   23 ar
  33   20   34 1
  34   21   22 ar
  35   21   24 1
  36   23   35 1
  37   24   25 1
  38   25   36 1
  39   25   37 1
  40   25   38 1

#	End of record

