#	Name: ASD03330965
#	Creating user name:	WinNT
#	Creation time:	15. 06. 2019 20:38

#	Modifying user name:	WinNT
#	Modification time:	15. 06. 2019 20:38

#	Program:	/corina/corina34_cracker 3.40 0067  02.08.2006

@<TRIPOS>MOLECULE
ASD03330965
  66   68    0    0    0
SMALL
NO_CHARGES


@<TRIPOS>ATOM
   1 N1             0.1599     0.9697    -0.0177 N.pl3   
   2 C2             0.0431    -0.3675     0.1989 C.2     
   3 C3             1.1653    -1.2954     0.5847 C.3     
   4 N4             1.9347    -0.6909     1.6834 N.3     
   5 C5             3.0108     0.1599     1.1717 C.3     
   6 C6             2.5956     0.8423    -0.1285 C.3     
   7 C7             1.3908     1.7523     0.1253 C.3     
   8 C8            -1.0719     1.4347    -0.3758 C.2     
   9 N9            -1.9182     0.4317    -0.3636 N.2     
  10 C10           -1.2620    -0.6951    -0.0099 C.2     
  11 C11           -1.8528    -2.0383     0.1252 C.2     
  12 O12           -1.1550    -2.9795     0.4513 O.2     
  13 N13           -3.1663    -2.2238    -0.1127 N.am    
  14 C14            2.4631    -1.7225     2.5859 C.3     
  15 C15           -4.9859    -3.6550    -0.8407 C.2     
  16 C16           -3.7537    -3.5591     0.0215 C.3     
  17 C17           -4.1337    -3.8045     1.4832 C.3     
  18 C18           -5.2019    -2.7952     1.9088 C.3     
  19 N19           -5.3828    -4.8512    -1.3183 N.am    
  20 C20           -6.6383    -4.9617    -2.0652 C.3     
  21 C21           -6.8522    -6.4157    -2.4908 C.3     
  22 C22           -8.1633    -6.5311    -3.2708 C.3     
  23 F23           -8.1035    -5.7167    -4.4067 F       
  24 F24           -8.3589    -7.8606    -3.6600 F       
  25 F25           -9.2265    -6.1216    -2.4589 F       
  26 O26           -5.6204    -2.6557    -1.1050 O.2     
  27 C27           -4.6837    -5.2241     1.6357 C.3     
  28 C28           -2.8954    -3.6397     2.3666 C.3     
  29 C29           -1.3989     2.8355    -0.7199 C.ar    
  30 C30           -2.1725     3.1187    -1.8488 C.ar    
  31 C31           -2.4746     4.4301    -2.1640 C.ar    
  32 C32           -2.0129     5.4600    -1.3648 C.ar    
  33 C33           -1.2457     5.1855    -0.2454 C.ar    
  34 C34           -0.9414     3.8794     0.0841 C.ar    
  35 F35           -2.6236     2.1132    -2.6303 F       
  36 Cl36          -0.6703     6.4861     0.7501 Cl      
  37 H37            0.7527    -2.2501     0.9111 H       
  38 H38            1.8184    -1.4538    -0.2734 H       
  39 H39            3.2500     0.9205     1.9149 H       
  40 H40            3.8945    -0.4515     0.9890 H       
  41 H41            3.4265     1.4381    -0.5064 H       
  42 H42            2.3290     0.0853    -0.8660 H       
  43 H43            1.3907     2.5673    -0.5985 H       
  44 H44            1.4482     2.1599     1.1346 H       
  45 H45           -3.7229    -1.4731    -0.3729 H       
  46 H46            3.0609    -2.4331     2.0151 H       
  47 H47            3.0856    -1.2541     3.3483 H       
  48 H48            1.6351    -2.2458     3.0640 H       
  49 H49           -3.0287    -4.3086    -0.2961 H       
  50 H50           -6.0840    -2.9126     1.2794 H       
  51 H51           -5.4726    -2.9700     2.9500 H       
  52 H52           -4.8100    -1.7839     1.8001 H       
  53 H53           -4.8372    -5.6389    -1.1675 H       
  54 H54           -7.4667    -4.6427    -1.4326 H       
  55 H55           -6.5916    -4.3272    -2.9502 H       
  56 H56           -6.0238    -6.7347    -3.1233 H       
  57 H57           -6.8988    -7.0502    -1.6058 H       
  58 H58           -3.9018    -5.9445     1.3955 H       
  59 H59           -5.0155    -5.3768     2.6627 H       
  60 H60           -5.5258    -5.3622     0.9575 H       
  61 H61           -2.5036    -2.6284     2.2579 H       
  62 H62           -3.1662    -3.8145     3.4079 H       
  63 H63           -2.1345    -4.3588     2.0634 H       
  64 H64           -3.0720     4.6509    -3.0362 H       
  65 H65           -2.2516     6.4831    -1.6153 H       
  66 H66           -0.3469     3.6669     0.9603 H       
@<TRIPOS>BOND
   1    1    2 1
   2    1    7 1
   3    1    8 1
   4    2    3 1
   5    2   10 2
   6    3    4 1
   7    3   37 1
   8    3   38 1
   9    4    5 1
  10    4   14 1
  11    5    6 1
  12    5   39 1
  13    5   40 1
  14    6    7 1
  15    6   41 1
  16    6   42 1
  17    7   43 1
  18    7   44 1
  19    8    9 2
  20    8   29 1
  21    9   10 1
  22   10   11 1
  23   11   12 2
  24   11   13 am
  25   13   16 1
  26   13   45 1
  27   14   46 1
  28   14   47 1
  29   14   48 1
  30   15   19 am
  31   15   26 2
  32   15   16 1
  33   16   17 1
  34   16   49 1
  35   17   18 1
  36   17   27 1
  37   17   28 1
  38   18   50 1
  39   18   51 1
  40   18   52 1
  41   19   20 1
  42   19   53 1
  43   20   21 1
  44   20   54 1
  45   20   55 1
  46   21   22 1
  47   21   56 1
  48   21   57 1
  49   22   23 1
  50   22   24 1
  51   22   25 1
  52   27   58 1
  53   27   59 1
  54   27   60 1
  55   28   61 1
  56   28   62 1
  57   28   63 1
  58   29   30 ar
  59   29   34 ar
  60   30   31 ar
  61   30   35 1
  62   31   32 ar
  63   31   64 1
  64   32   33 ar
  65   32   65 1
  66   33   34 ar
  67   33   36 1
  68   34   66 1

#	End of record

