#	Name: ASD03331454
#	Creating user name:	WinNT
#	Creation time:	15. 06. 2019 20:39

#	Modifying user name:	WinNT
#	Modification time:	15. 06. 2019 20:39

#	Program:	/corina/corina34_cracker 3.40 0067  02.08.2006

@<TRIPOS>MOLECULE
ASD03331454
  43   45    0    0    0
SMALL
NO_CHARGES


@<TRIPOS>ATOM
   1 C1            -0.0180     1.4750     0.0102 C.ar    
   2 C2             0.0021    -0.0041     0.0020 C.2     
   3 N3            -1.0191    -0.8131     0.3844 N.pl3   
   4 C4            -0.6003    -2.1035     0.2289 C.2     
   5 C5             0.6674    -2.0586    -0.2472 C.2     
   6 N6             1.0097    -0.7562    -0.3820 N.2     
   7 C7             1.5180    -3.2188    -0.5662 C.2     
   8 N8             2.7672    -3.0298    -1.0355 N.am    
   9 C9            -0.9799     2.1577     0.7551 C.ar    
  10 O10            1.0929    -4.3470    -0.4059 O.2     
  11 C11            3.6130    -4.1832    -1.3525 C.3     
  12 C12            2.9366    -5.0300    -2.4325 C.3     
  13 C13            4.9704    -3.6954    -1.8626 C.3     
  14 C14           -2.3517    -0.4580     0.8804 C.3     
  15 C15           -3.2455    -1.7011     0.7738 C.3     
  16 O16           -2.5732    -2.8322     1.3340 O.3     
  17 C17           -1.4605    -3.2972     0.5553 C.3     
  18 C18           -0.9941     3.5389     0.7590 C.ar    
  19 C19           -0.0536     4.2460     0.0232 C.ar    
  20 C20            0.9026     3.5709    -0.7179 C.ar    
  21 C21            0.9288     2.1919    -0.7227 C.ar    
  22 F22           -0.0709     5.5968     0.0292 F       
  23 F23           -1.9246     4.2022     1.4797 F       
  24 C24            3.8151    -5.0289    -0.0936 C.3     
  25 H25            3.1063    -2.1300    -1.1633 H       
  26 H26           -1.7123     1.6074     1.3272 H       
  27 H27            2.7926    -4.4276    -3.3294 H       
  28 H28            3.5658    -5.8882    -2.6684 H       
  29 H29            1.9695    -5.3775    -2.0691 H       
  30 H30            5.4523    -3.0922    -1.0932 H       
  31 H31            5.5997    -4.5536    -2.0985 H       
  32 H32            4.8264    -3.0930    -2.7595 H       
  33 H33           -2.2849    -0.1406     1.9210 H       
  34 H34           -2.7674     0.3475     0.2750 H       
  35 H35           -4.1746    -1.5268     1.3165 H       
  36 H36           -3.4709    -1.8963    -0.2746 H       
  37 H37           -1.8200    -3.7564    -0.3656 H       
  38 H38           -0.8842    -4.0221     1.1302 H       
  39 H39            1.6319     4.1257    -1.2895 H       
  40 H40            1.6750     1.6673    -1.3010 H       
  41 H41            2.8480    -5.3764     0.2698 H       
  42 H42            4.4443    -5.8870    -0.3295 H       
  43 H43            4.2969    -4.4256     0.6758 H       
@<TRIPOS>BOND
   1    1    2 1
   2    1    9 ar
   3    1   21 ar
   4    2    3 1
   5    2    6 2
   6    3    4 1
   7    3   14 1
   8    4    5 2
   9    4   17 1
  10    5    6 1
  11    5    7 1
  12    7    8 am
  13    7   10 2
  14    8   11 1
  15    8   25 1
  16    9   18 ar
  17    9   26 1
  18   11   12 1
  19   11   13 1
  20   11   24 1
  21   12   27 1
  22   12   28 1
  23   12   29 1
  24   13   30 1
  25   13   31 1
  26   13   32 1
  27   14   15 1
  28   14   33 1
  29   14   34 1
  30   15   16 1
  31   15   35 1
  32   15   36 1
  33   16   17 1
  34   17   37 1
  35   17   38 1
  36   18   19 ar
  37   18   23 1
  38   19   20 ar
  39   19   22 1
  40   20   21 ar
  41   20   39 1
  42   21   40 1
  43   24   41 1
  44   24   42 1
  45   24   43 1

#	End of record

