#	Name: ASD01913647
#	Creating user name:	WinNT
#	Creation time:	15. 06. 2019 20:02

#	Modifying user name:	WinNT
#	Modification time:	15. 06. 2019 20:02

#	Program:	/corina/corina34_cracker 3.40 0067  02.08.2006

@<TRIPOS>MOLECULE
ASD01913647
  38   40    0    0    0
SMALL
NO_CHARGES


@<TRIPOS>ATOM
   1 C1            -0.0052     1.3556     0.0124 C.ar    
   2 C2             0.0166    -0.0288    -0.0004 C.ar    
   3 C3             1.2270    -0.7008    -0.0206 C.ar    
   4 C4             2.4118     0.0107    -0.0278 C.ar    
   5 C5             2.3887     1.3929    -0.0149 C.ar    
   6 C6             1.1808     2.0650     0.0052 C.ar    
   7 C7             3.6813     2.1675    -0.0223 C.3     
   8 O8             4.0748     2.4247    -1.3718 O.3     
   9 C9             5.2251     3.1168    -1.5559 C.ar    
  10 N10            5.9212     3.5173    -0.5032 N.ar    
  11 C11            7.0444     4.1924    -0.6301 C.ar    
  12 C12            7.5432     4.5113    -1.8937 C.ar    
  13 C13            6.8295     4.1016    -3.0300 C.ar    
  14 C14            5.6607     3.3916    -2.8488 C.ar    
  15 C15            8.8023     5.2685    -2.0327 C.2     
  16 N16            9.4796     5.6575    -0.9343 N.am    
  17 O17            9.2286     5.5414    -3.1382 O.2     
  18 C18           10.7216     6.2774    -1.0643 C.ar    
  19 N19           11.2736     6.3938    -2.2614 N.ar    
  20 C20           12.4471     6.9731    -2.4295 C.ar    
  21 C21           13.1464     7.4830    -1.3510 C.ar    
  22 C22           12.6000     7.3802    -0.0769 C.ar    
  23 C23           11.3654     6.7722     0.0644 C.ar    
  24 F24           -1.1422    -0.7233     0.0071 F       
  25 F25           14.3475     8.0740    -1.5335 F       
  26 H26           -0.9488     1.8809     0.0236 H       
  27 H27            1.2453    -1.7806    -0.0302 H       
  28 H28            3.3560    -0.5133    -0.0431 H       
  29 H29            1.1640     3.1448     0.0152 H       
  30 H30            3.5413     3.1130     0.5018 H       
  31 H31            4.4561     1.5863     0.4776 H       
  32 H32            7.5847     4.5026     0.2522 H       
  33 H33            7.1884     4.3328    -4.0220 H       
  34 H34            5.0855     3.0603    -3.7007 H       
  35 H35            9.1029     5.5061    -0.0534 H       
  36 H36           12.8668     7.0498    -3.4217 H       
  37 H37           13.1253     7.7701     0.7825 H       
  38 H38           10.9115     6.6754     1.0396 H       
@<TRIPOS>BOND
   1    1    2 ar
   2    1    6 ar
   3    1   26 1
   4    2    3 ar
   5    2   24 1
   6    3    4 ar
   7    3   27 1
   8    4    5 ar
   9    4   28 1
  10    5    6 ar
  11    5    7 1
  12    6   29 1
  13    7    8 1
  14    7   30 1
  15    7   31 1
  16    8    9 1
  17    9   10 ar
  18    9   14 ar
  19   10   11 ar
  20   11   12 ar
  21   11   32 1
  22   12   13 ar
  23   12   15 1
  24   13   14 ar
  25   13   33 1
  26   14   34 1
  27   15   16 am
  28   15   17 2
  29   16   18 1
  30   16   35 1
  31   18   19 ar
  32   18   23 ar
  33   19   20 ar
  34   20   21 ar
  35   20   36 1
  36   21   22 ar
  37   21   25 1
  38   22   23 ar
  39   22   37 1
  40   23   38 1

#	End of record

