#	Name: ASD08150782
#	Creating user name:	WinNT
#	Creation time:	15. 06. 2019 21:16

#	Modifying user name:	WinNT
#	Modification time:	15. 06. 2019 21:16

#	Program:	/corina/corina34_cracker 3.40 0067  02.08.2006

@<TRIPOS>MOLECULE
ASD08150782
  57   60    0    0    0
SMALL
NO_CHARGES


@<TRIPOS>ATOM
   1 C1            -0.0134     1.3983    -0.0942 C.2     
   2 C2             0.0056    -0.0033    -0.1030 C.2     
   3 C3             1.1964    -0.6604    -0.0136 C.2     
   4 C4             2.3892     0.0783     0.0863 C.2     
   5 N5             2.3383     1.4447     0.0926 N.am    
   6 C6             1.1431     2.0921     0.0024 C.2     
   7 N7             3.5521    -0.5669     0.1736 N.2     
   8 C8             4.6983     0.0827     0.2691 C.2     
   9 C9             4.7082     1.4765     0.2800 C.2     
  10 C10            3.4784     2.1622     0.1881 C.2     
  11 C11            1.1093     3.5987     0.0121 C.3     
  12 O12            3.4457     3.3818     0.1943 O.2     
  13 C13            5.9832     2.2225     0.3865 C.ar    
  14 C14            6.4158     3.0231    -0.6700 C.ar    
  15 C15            7.6068     3.7167    -0.5643 C.ar    
  16 C16            8.3691     3.6162     0.5882 C.ar    
  17 C17            7.9433     2.8229     1.6384 C.ar    
  18 C18            6.7531     2.1311     1.5464 C.ar    
  19 F19            8.0282     4.4931    -1.5864 F       
  20 C20            5.9932    -0.6819     0.3666 C.3     
  21 C21            6.0200    -1.4750     1.6747 C.3     
  22 N22            6.1020    -1.6045    -0.7662 N.pl3   
  23 C23            7.3473    -2.0234    -1.2001 C.ar    
  24 C24            7.4691    -2.9082    -2.2853 C.ar    
  25 C25            8.7579    -3.3000    -2.6837 C.ar    
  26 N26            9.8113    -2.8245    -2.0272 N.ar    
  27 C27            9.6517    -1.9925    -1.0107 C.ar    
  28 N28            8.4536    -1.5935    -0.6035 N.ar    
  29 N29           10.7742    -1.5187    -0.3517 N.pl3   
  30 N30            6.5900    -3.5286    -3.1103 N.2     
  31 C31            7.2417    -4.2578    -3.9681 C.2     
  32 N32            8.5837    -4.1504    -3.7461 N.pl3   
  33 H33           -0.9532     1.9251    -0.1692 H       
  34 H34           -0.9174    -0.5589    -0.1798 H       
  35 H35            1.2239    -1.7401    -0.0190 H       
  36 H36            1.6831     3.9804    -0.8323 H       
  37 H37            0.0769     3.9395    -0.0664 H       
  38 H38            1.5434     3.9658     0.9421 H       
  39 H39            5.8219     3.1009    -1.5687 H       
  40 H40            9.2995     4.1590     0.6669 H       
  41 H41            8.5419     2.7481     2.5342 H       
  42 H42            6.4225     1.5123     2.3674 H       
  43 H43            6.8299     0.0165     0.3480 H       
  44 H44            6.9566    -2.0281     1.7452 H       
  45 H45            5.9390    -0.7886     2.5175 H       
  46 H46            5.1833    -2.1734     1.6933 H       
  47 H47            5.3011    -1.9217    -1.2120 H       
  48 H48           11.6582    -1.7976    -0.6374 H       
  49 H49           10.6762    -0.9081     0.3956 H       
  50 H50            6.7876    -4.8596    -4.7414 H       
  51 H51            9.2857    -4.5939    -4.2474 H       
  52 C52           16.6582    10.7006     8.6809 C.2     
  53 O53           16.6746     9.4931     8.6743 O.2     
  54 C54           17.9529    11.4718     8.6727 C.3     
  55 F55           19.0284    10.5773     8.6576 F       
  56 F56           18.0052    12.2832     7.5342 F       
  57 F57           18.0270    12.2709     9.8186 F       
@<TRIPOS>BOND
   1    1    2 1
   2    1    6 2
   3    1   33 1
   4    2    3 2
   5    2   34 1
   6    3    4 1
   7    3   35 1
   8    4    5 1
   9    4    7 2
  10    5    6 1
  11    5   10 am
  12    6   11 1
  13    7    8 1
  14    8    9 2
  15    8   20 1
  16    9   10 1
  17    9   13 1
  18   10   12 2
  19   11   36 1
  20   11   37 1
  21   11   38 1
  22   13   14 ar
  23   13   18 ar
  24   14   15 ar
  25   14   39 1
  26   15   16 ar
  27   15   19 1
  28   16   17 ar
  29   16   40 1
  30   17   18 ar
  31   17   41 1
  32   18   42 1
  33   20   21 1
  34   20   22 1
  35   20   43 1
  36   21   44 1
  37   21   45 1
  38   21   46 1
  39   22   23 1
  40   22   47 1
  41   23   24 ar
  42   23   28 ar
  43   24   25 ar
  44   24   30 1
  45   25   26 ar
  46   25   32 1
  47   26   27 ar
  48   27   28 ar
  49   27   29 1
  50   29   48 1
  51   29   49 1
  52   30   31 2
  53   31   32 1
  54   31   50 1
  55   32   51 1
  56   52   53 2
  57   52   54 1
  58   54   55 1
  59   54   56 1
  60   54   57 1

#	End of record

