#	Name: ASD03330479
#	Creating user name:	WinNT
#	Creation time:	15. 06. 2019 20:37

#	Modifying user name:	WinNT
#	Modification time:	15. 06. 2019 20:37

#	Program:	/corina/corina34_cracker 3.40 0067  02.08.2006

@<TRIPOS>MOLECULE
ASD03330479
  54   55    0    0    0
SMALL
NO_CHARGES


@<TRIPOS>ATOM
   1 C1            -0.5120     1.8959    -2.4567 C.3     
   2 N2            -0.5030     0.4860    -2.0422 N.3     
   3 C3             0.1863    -0.3573    -3.0356 C.3     
   4 C4             1.5155     0.2814    -3.3456 C.2     
   5 N5             1.8281     1.5697    -3.0236 N.pl3   
   6 C6             0.9021     2.4802    -2.3445 C.3     
   7 C7             2.5988    -0.2518    -3.9639 C.2     
   8 N8             3.5561     0.7018    -4.0124 N.2     
   9 C9             3.0998     1.7996    -3.4479 C.2     
  10 C10            3.8408     3.0638    -3.3009 C.2     
  11 C11            2.7123    -1.6246    -4.4880 C.2     
  12 O12            1.7768    -2.3947    -4.3833 O.2     
  13 C13            3.9655    -3.3911    -5.6042 C.3     
  14 N14            3.8527    -2.0265    -5.0833 N.am    
  15 C15           -1.8675     0.0009    -1.7961 C.3     
  16 C16            3.3205     4.0603    -2.5929 C.2     
  17 C17            4.3942    -4.3333    -4.4776 C.3     
  18 C18            3.3573    -4.2891    -3.3534 C.3     
  19 C19            4.4992    -5.7606    -5.0186 C.3     
  20 C20            5.7548    -3.8925    -3.9341 C.3     
  21 C21            4.9933    -3.4249    -6.7058 C.2     
  22 O22            5.9110    -2.6320    -6.7034 O.2     
  23 N23            4.8927    -4.3363    -7.6936 N.am    
  24 C24            5.8238    -4.2972    -8.8239 C.3     
  25 C25            5.1893     3.2271    -3.9537 C.3     
  26 H26           -0.8527     1.9677    -3.4896 H       
  27 H27           -1.1885     2.4583    -1.8132 H       
  28 H28            0.3435    -1.3552    -2.6262 H       
  29 H29           -0.4127    -0.4211    -3.9440 H       
  30 H30            0.9341     3.4601    -2.8209 H       
  31 H31            1.1801     2.5718    -1.2945 H       
  32 H32            3.0005    -3.7107    -5.9977 H       
  33 H33            4.5988    -1.4123    -5.1668 H       
  34 H34           -2.4752     0.1579    -2.6872 H       
  35 H35           -1.8379    -1.0626    -1.5592 H       
  36 H36           -2.3020     0.5476    -0.9591 H       
  37 H37            3.8124     5.0215    -2.5711 H       
  38 H38            2.4057     3.9091    -2.0392 H       
  39 H39            2.3880    -4.6031    -3.7406 H       
  40 H40            3.6627    -4.9603    -2.5508 H       
  41 H41            3.2824    -3.2722    -2.9680 H       
  42 H42            5.2534    -5.7966    -5.8047 H       
  43 H43            4.7836    -6.4353    -4.2111 H       
  44 H44            3.5354    -6.0668    -5.4254 H       
  45 H45            5.6799    -2.8757    -3.5486 H       
  46 H46            6.0602    -4.5638    -3.1314 H       
  47 H47            6.4935    -3.9241    -4.7349 H       
  48 H48            4.2038    -5.0182    -7.6560 H       
  49 H49            5.7313    -3.3405    -9.3380 H       
  50 H50            6.8439    -4.4162    -8.4587 H       
  51 H51            5.5891    -5.1058    -9.5162 H       
  52 H52            5.4482     2.3121    -4.4865 H       
  53 H53            5.1543     4.0594    -4.6566 H       
  54 H54            5.9407     3.4279    -3.1900 H       
@<TRIPOS>BOND
   1    1    2 1
   2    1    6 1
   3    1   26 1
   4    1   27 1
   5    2    3 1
   6    2   15 1
   7    3    4 1
   8    3   28 1
   9    3   29 1
  10    4    5 1
  11    4    7 2
  12    5    6 1
  13    5    9 1
  14    6   30 1
  15    6   31 1
  16    7    8 1
  17    7   11 1
  18    8    9 2
  19    9   10 1
  20   10   16 2
  21   10   25 1
  22   11   12 2
  23   11   14 am
  24   13   14 1
  25   13   17 1
  26   13   21 1
  27   13   32 1
  28   14   33 1
  29   15   34 1
  30   15   35 1
  31   15   36 1
  32   16   37 1
  33   16   38 1
  34   17   18 1
  35   17   19 1
  36   17   20 1
  37   18   39 1
  38   18   40 1
  39   18   41 1
  40   19   42 1
  41   19   43 1
  42   19   44 1
  43   20   45 1
  44   20   46 1
  45   20   47 1
  46   21   22 2
  47   21   23 am
  48   23   24 1
  49   23   48 1
  50   24   49 1
  51   24   50 1
  52   24   51 1
  53   25   52 1
  54   25   53 1
  55   25   54 1

#	End of record

