#	Name: ASD01881923
#	Creating user name:	WinNT
#	Creation time:	15. 06. 2019 19:43

#	Modifying user name:	WinNT
#	Modification time:	15. 06. 2019 19:43

#	Program:	/corina/corina34_cracker 3.40 0067  02.08.2006

@<TRIPOS>MOLECULE
ASD01881923
  50   53    0    0    0
SMALL
NO_CHARGES


@<TRIPOS>ATOM
   1 N1             0.5119    -0.1374     1.0572 N.pl3   
   2 N2             0.7563    -1.3942     1.1989 N.2     
   3 N3             2.0149    -1.6478     1.1156 N.2     
   4 C4             2.6868    -0.4983     0.9031 C.ar    
   5 C5             1.7070     0.5118     0.8616 C.ar    
   6 C6             4.0323    -0.1608     0.7348 C.ar    
   7 C7             4.3811     1.1595     0.5302 C.ar    
   8 C8             3.4023     2.1498     0.4912 C.ar    
   9 C9             2.0826     1.8326     0.6537 C.ar    
  10 C10           -0.8115     0.4901     1.0920 C.3     
  11 C11           -1.1466     0.8943     2.5291 C.3     
  12 C12           -2.4422     1.6747     2.7597 C.3     
  13 C13           -2.3431     0.2111     3.1944 C.3     
  14 Br14           5.3650    -1.5014     0.7874 Br      
  15 O15            5.6886     1.4953     0.3661 O.3     
  16 C16            5.9822     2.8783     0.1583 C.3     
  17 C17            7.4926     3.0602    -0.0043 C.3     
  18 N18            7.9331     2.4108    -1.2461 N.3     
  19 C19            9.3659     2.6365    -1.4787 C.3     
  20 C20            9.8237     1.7987    -2.6773 C.3     
  21 N21            8.9521     2.1051    -3.8217 N.am    
  22 C22            7.4961     2.0340    -3.6261 C.3     
  23 C23            7.1299     2.8626    -2.3901 C.3     
  24 C24            9.4737     2.4417    -5.0180 C.2     
  25 O25            8.7443     2.6077    -5.9726 O.2     
  26 C26           10.9634     2.6117    -5.1694 C.3     
  27 H27            3.6889     3.1786     0.3308 H       
  28 H28            1.3325     2.6089     0.6217 H       
  29 H29           -0.8106     1.3756     0.4564 H       
  30 H30           -1.5583    -0.2164     0.7298 H       
  31 H31           -0.2922     1.1399     3.1598 H       
  32 H32           -2.4403     2.4334     3.5423 H       
  33 H33           -3.0559     1.9002     1.8875 H       
  34 H34           -2.8915    -0.5263     2.6082 H       
  35 H35           -2.2759     0.0069     4.2630 H       
  36 H36            5.4753     3.2261    -0.7418 H       
  37 H37            5.6369     3.4558     1.0159 H       
  38 H38            7.7279     4.1236    -0.0472 H       
  39 H39            8.0065     2.6083     0.8441 H       
  40 H40            9.5388     3.6926    -1.6858 H       
  41 H41            9.9289     2.3422    -0.5930 H       
  42 H42           10.8553     2.0480    -2.9257 H       
  43 H43            9.7487     0.7390    -2.4334 H       
  44 H44            6.9888     2.4390    -4.5018 H       
  45 H45            7.1973     0.9970    -3.4734 H       
  46 H46            6.0713     2.7323    -2.1654 H       
  47 H47            7.3340     3.9155    -2.5846 H       
  48 H48           11.4530     2.3868    -4.2219 H       
  49 H49           11.3304     1.9319    -5.9384 H       
  50 H50           11.1844     3.6394    -5.4576 H       
@<TRIPOS>BOND
   1    1    2 1
   2    1    5 1
   3    1   10 1
   4    2    3 2
   5    3    4 1
   6    4    5 ar
   7    4    6 ar
   8    5    9 ar
   9    6    7 ar
  10    6   14 1
  11    7    8 ar
  12    7   15 1
  13    8    9 ar
  14    8   27 1
  15    9   28 1
  16   10   11 1
  17   10   29 1
  18   10   30 1
  19   11   12 1
  20   11   13 1
  21   11   31 1
  22   12   13 1
  23   12   32 1
  24   12   33 1
  25   13   34 1
  26   13   35 1
  27   15   16 1
  28   16   17 1
  29   16   36 1
  30   16   37 1
  31   17   18 1
  32   17   38 1
  33   17   39 1
  34   18   19 1
  35   18   23 1
  36   19   20 1
  37   19   40 1
  38   19   41 1
  39   20   21 1
  40   20   42 1
  41   20   43 1
  42   21   22 1
  43   21   24 am
  44   22   23 1
  45   22   44 1
  46   22   45 1
  47   23   46 1
  48   23   47 1
  49   24   25 2
  50   24   26 1
  51   26   48 1
  52   26   49 1
  53   26   50 1

#	End of record

