#	Name: ASD01140645
#	Creating user name:	WinNT
#	Creation time:	15. 06. 2019 19:01

#	Modifying user name:	WinNT
#	Modification time:	15. 06. 2019 19:01

#	Program:	/corina/corina34_cracker 3.40 0067  02.08.2006

@<TRIPOS>MOLECULE
ASD01140645
  48   50    0    0    0
SMALL
NO_CHARGES


@<TRIPOS>ATOM
   1 C1            -1.5948     1.3090     1.2668 C.3     
   2 C2            -1.2890    -0.1704     1.0242 C.3     
   3 C3            -0.3053    -0.6685     2.0849 C.3     
   4 N4            -0.0125    -2.0850     1.8525 N.am    
   5 C5             0.8357    -2.7406     2.6693 C.2     
   6 O6             1.3581    -2.1563     3.5993 O.2     
   7 C7             1.1303    -4.1656     2.4356 C.ar    
   8 N8             0.4778    -4.8335     1.4820 N.ar    
   9 N9             0.6858    -6.0741     1.2261 N.ar    
  10 C10            1.5831    -6.7981     1.9049 C.ar    
  11 C11            1.8035    -8.1631     1.6134 C.ar    
  12 C12            2.7447    -8.8699     2.3450 C.ar    
  13 C13            3.4691    -8.2525     3.3562 C.ar    
  14 C14            3.2739    -6.9349     3.6561 C.ar    
  15 C15            2.3323    -6.1882     2.9395 C.ar    
  16 C16            2.0998    -4.8168     3.2114 C.ar    
  17 N17            2.7940    -4.1528     4.1991 N.pl3   
  18 C18            1.0362    -8.8315     0.5375 C.ar    
  19 C19            0.1453    -9.8579     0.8467 C.ar    
  20 C20           -0.5676   -10.4771    -0.1599 C.ar    
  21 C21           -1.5306   -11.5867     0.1756 C.3     
  22 C22           -0.4017   -10.0828    -1.4758 C.ar    
  23 C23            0.4795    -9.0663    -1.7941 C.ar    
  24 C24            1.1979    -8.4319    -0.7940 C.ar    
  25 O25            2.0595    -7.4289    -1.1049 O.3     
  26 C26            2.1724    -7.0751    -2.4848 C.3     
  27 H27           -0.6718     1.8855     1.2056 H       
  28 H28           -2.2956     1.6638     0.5112 H       
  29 H29           -2.0348     1.4314     2.2565 H       
  30 H30           -2.2120    -0.7470     1.0854 H       
  31 H31           -0.8490    -0.2929     0.0345 H       
  32 H32            0.6177    -0.0919     2.0237 H       
  33 H33           -0.7452    -0.5460     3.0746 H       
  34 H34           -0.4291    -2.5511     1.1108 H       
  35 H35            2.9166    -9.9135     2.1264 H       
  36 H36            4.1972    -8.8229     3.9136 H       
  37 H37            3.8455    -6.4697     4.4456 H       
  38 H38            2.8549    -3.1849     4.1822 H       
  39 H39            3.2217    -4.6533     4.9115 H       
  40 H40            0.0132   -10.1684     1.8726 H       
  41 H41           -2.5175   -11.1656     0.3673 H       
  42 H42           -1.5888   -12.2826    -0.6613 H       
  43 H43           -1.1820   -12.1144     1.0633 H       
  44 H44           -0.9632   -10.5717    -2.2581 H       
  45 H45            0.6046    -8.7635    -2.8232 H       
  46 H46            2.5116    -7.9399    -3.0551 H       
  47 H47            1.2004    -6.7524    -2.8579 H       
  48 H48            2.8913    -6.2631    -2.5941 H       
@<TRIPOS>BOND
   1    1    2 1
   2    1   27 1
   3    1   28 1
   4    1   29 1
   5    2    3 1
   6    2   30 1
   7    2   31 1
   8    3    4 1
   9    3   32 1
  10    3   33 1
  11    4    5 am
  12    4   34 1
  13    5    6 2
  14    5    7 1
  15    7   16 ar
  16    7    8 ar
  17    8    9 ar
  18    9   10 ar
  19   10   15 ar
  20   10   11 ar
  21   11   12 ar
  22   11   18 1
  23   12   13 ar
  24   12   35 1
  25   13   14 ar
  26   13   36 1
  27   14   15 ar
  28   14   37 1
  29   15   16 ar
  30   16   17 1
  31   17   38 1
  32   17   39 1
  33   18   24 ar
  34   18   19 ar
  35   19   20 ar
  36   19   40 1
  37   20   21 1
  38   20   22 ar
  39   21   41 1
  40   21   42 1
  41   21   43 1
  42   22   23 ar
  43   22   44 1
  44   23   24 ar
  45   23   45 1
  46   24   25 1
  47   25   26 1
  48   26   46 1
  49   26   47 1
  50   26   48 1

#	End of record

