#	Name: ASD07931927
#	Creating user name:	WinNT
#	Creation time:	15. 06. 2019 21:13

#	Modifying user name:	WinNT
#	Modification time:	15. 06. 2019 21:13

#	Program:	/corina/corina34_cracker 3.40 0067  02.08.2006

@<TRIPOS>MOLECULE
ASD07931927
  26   26    0    0    0
SMALL
NO_CHARGES


@<TRIPOS>ATOM
   1 C1            -0.0168     1.3906     0.0097 C.ar    
   2 C2             0.0021    -0.0041     0.0020 C.ar    
   3 N3             1.1284     2.0712     0.0024 N.ar    
   4 N4             1.1549    -0.6477    -0.0124 N.ar    
   5 C5             2.2938     0.0316    -0.0197 C.ar    
   6 C6             2.2755     1.4277    -0.0120 C.ar    
   7 C7            -1.3063     2.1127     0.0197 C.2     
   8 O8            -2.3502     1.4917     0.0213 O.2     
   9 O9            -1.3239     3.4597     0.0271 O.3     
  10 O10            3.4762    -0.6296    -0.0341 O.3     
  11 C11            3.4209    -2.0575    -0.0407 C.3     
  12 C12            4.8425    -2.6229    -0.0569 C.3     
  13 C13           -2.6261     4.1019     0.0368 C.3     
  14 C14           -2.4455     5.6212     0.0442 C.3     
  15 H15           -0.9256    -0.5571     0.0083 H       
  16 H16            3.2038     1.9796    -0.0183 H       
  17 H17            2.9017    -2.4052     0.8524 H       
  18 H18            2.8851    -2.3962    -0.9275 H       
  19 H19            5.3617    -2.2752    -0.9500 H       
  20 H20            5.3783    -2.2842     0.8298 H       
  21 H21            4.8003    -3.7120    -0.0620 H       
  22 H22           -3.1834     3.8066    -0.8522 H       
  23 H23           -3.1750     3.7969     0.9277 H       
  24 H24           -1.8881     5.9165     0.9331 H       
  25 H25           -1.8965     5.9262    -0.8468 H       
  26 H26           -3.4230     6.1033     0.0514 H       
@<TRIPOS>BOND
   1    1    2 ar
   2    1    3 ar
   3    1    7 1
   4    2    4 ar
   5    2   15 1
   6    3    6 ar
   7    4    5 ar
   8    5    6 ar
   9    5   10 1
  10    6   16 1
  11    7    8 2
  12    7    9 1
  13    9   13 1
  14   10   11 1
  15   11   12 1
  16   11   17 1
  17   11   18 1
  18   12   19 1
  19   12   20 1
  20   12   21 1
  21   13   14 1
  22   13   22 1
  23   13   23 1
  24   14   24 1
  25   14   25 1
  26   14   26 1

#	End of record

