#	Name: ASD03490110
#	Creating user name:	WinNT
#	Creation time:	15. 06. 2019 20:42

#	Modifying user name:	WinNT
#	Modification time:	15. 06. 2019 20:42

#	Program:	/corina/corina34_cracker 3.40 0067  02.08.2006

@<TRIPOS>MOLECULE
ASD03490110
  46   48    0    0    0
SMALL
NO_CHARGES


@<TRIPOS>ATOM
   1 C1             0.1963     1.5053    -0.9147 C.ar    
   2 C2             0.1896     0.1234    -0.9477 C.ar    
   3 C3             1.3648    -0.5783    -0.7547 C.ar    
   4 C4             2.5469     0.1019    -0.5290 C.ar    
   5 C5             2.5538     1.4839    -0.4968 C.ar    
   6 C6             1.3783     2.1855    -0.6885 C.ar    
   7 C7             1.3857     3.6921    -0.6529 C.3     
   8 O8             1.1517     4.1381     0.6844 O.3     
   9 C9             1.1389     5.5597     0.8291 C.3     
  10 C10            0.8815     5.9210     2.2934 C.3     
  11 C11            0.9896     7.4138     2.4689 C.2     
  12 S12            0.5447     9.8292     3.0255 S.3     
  13 C13            0.0144     8.1493     3.0056 C.2     
  14 N14            2.0593     8.0990     2.1092 N.2     
  15 C15            2.0319     9.3789     2.3124 C.2     
  16 N16            3.0612    10.2575     1.9954 N.am    
  17 C17            2.9257    11.5741     2.2501 C.2     
  18 N18            3.9238    12.4261     1.9427 N.am    
  19 O19            1.9032    11.9932     2.7571 O.2     
  20 C20            3.7463    13.8043     2.1164 C.ar    
  21 C21            4.3164    14.6973     1.2186 C.ar    
  22 C22            2.9955    14.2793     3.1830 C.ar    
  23 C23            2.8212    15.6402     3.3523 C.ar    
  24 C24            3.3955    16.5292     2.4580 C.ar    
  25 C25            4.1402    16.0562     1.3909 C.ar    
  26 F26            3.2240    17.8589     2.6244 F       
  27 Cl27           1.8820    16.2355     4.6855 Cl      
  28 N28           -0.4659     5.4792     2.6772 N.3     
  29 H29           -0.7211     2.0537    -1.0700 H       
  30 H30           -0.7339    -0.4081    -1.1240 H       
  31 H31            1.3595    -1.6580    -0.7798 H       
  32 H32            3.4650    -0.4463    -0.3775 H       
  33 H33            3.4772     2.0153    -0.3198 H       
  34 H34            2.3538     4.0588    -0.9941 H       
  35 H35            0.6015     4.0748    -1.3060 H       
  36 H36            2.1019     5.9652     0.5187 H       
  37 H37            0.3495     5.9812     0.2067 H       
  38 H38            1.6196     5.4265     2.9248 H       
  39 H39           -0.9344     7.7793     3.3652 H       
  40 H40            3.8769     9.9232     1.5908 H       
  41 H41            4.7650    12.0846     1.6011 H       
  42 H42            4.8977    14.3292     0.3861 H       
  43 H43            2.5476    13.5862     3.8798 H       
  44 H44            4.5836    16.7506     0.6925 H       
  45 H45           -0.6364     5.6483     3.6572 H       
  46 H46           -1.1687     5.9239     2.1059 H       
@<TRIPOS>BOND
   1    1    2 ar
   2    1    6 ar
   3    1   29 1
   4    2    3 ar
   5    2   30 1
   6    3    4 ar
   7    3   31 1
   8    4    5 ar
   9    4   32 1
  10    5    6 ar
  11    5   33 1
  12    6    7 1
  13    7    8 1
  14    7   34 1
  15    7   35 1
  16    8    9 1
  17    9   10 1
  18    9   36 1
  19    9   37 1
  20   10   11 1
  21   10   28 1
  22   10   38 1
  23   11   14 1
  24   11   13 2
  25   12   13 1
  26   12   15 1
  27   13   39 1
  28   14   15 2
  29   15   16 1
  30   16   17 am
  31   16   40 1
  32   17   18 am
  33   17   19 2
  34   18   20 1
  35   18   41 1
  36   20   22 ar
  37   20   21 ar
  38   21   25 ar
  39   21   42 1
  40   22   23 ar
  41   22   43 1
  42   23   24 ar
  43   23   27 1
  44   24   25 ar
  45   24   26 1
  46   25   44 1
  47   28   45 1
  48   28   46 1

#	End of record

