#	Name: ASD07300668
#	Creating user name:	WinNT
#	Creation time:	15. 06. 2019 21:10

#	Modifying user name:	WinNT
#	Modification time:	15. 06. 2019 21:10

#	Program:	/corina/corina34_cracker 3.40 0067  02.08.2006

@<TRIPOS>MOLECULE
ASD07300668
  21   20    0    0    0
SMALL
NO_CHARGES


@<TRIPOS>ATOM
   1 C1            -0.0187     1.5258     0.0104 C.3     
   2 C2             0.0021    -0.0041     0.0020 C.3     
   3 C3            -1.4333    -0.5336     0.0129 C.3     
   4 C4            -1.4133    -2.0590     0.1302 C.3     
   5 C5            -2.1868     0.0597     1.2050 C.3     
   6 O6            -2.0889    -0.1578    -1.2000 O.3     
   7 C7            -3.4428    -0.6056    -1.2917 C.3     
   8 Br8            1.8257     2.2063    -0.0035 Br      
   9 H9            -0.5459     1.8868    -0.8726 H       
  10 H10           -0.5289     1.8773     0.9072 H       
  11 H11            0.5123    -0.3556    -0.8948 H       
  12 H12            0.5293    -0.3651     0.8851 H       
  13 H13           -0.9132    -2.3457     1.0553 H       
  14 H14           -2.4359    -2.4363     0.1380 H       
  15 H15           -0.8764    -2.4817    -0.7190 H       
  16 H16           -2.2011     1.1464     1.1214 H       
  17 H17           -3.2094    -0.3176     1.2127 H       
  18 H18           -1.6868    -0.2270     2.1301 H       
  19 H19           -3.8696    -0.2802    -2.2404 H       
  20 H20           -3.4702    -1.6938    -1.2352 H       
  21 H21           -4.0213    -0.1844    -0.4695 H       
@<TRIPOS>BOND
   1    1    2 1
   2    1    8 1
   3    1    9 1
   4    1   10 1
   5    2    3 1
   6    2   11 1
   7    2   12 1
   8    3    4 1
   9    3    5 1
  10    3    6 1
  11    4   13 1
  12    4   14 1
  13    4   15 1
  14    5   16 1
  15    5   17 1
  16    5   18 1
  17    6    7 1
  18    7   19 1
  19    7   20 1
  20    7   21 1

#	End of record

