#	Name: ASD00071053
#	Creating user name:	WinNT
#	Creation time:	15. 06. 2019 18:30

#	Modifying user name:	WinNT
#	Modification time:	15. 06. 2019 18:30

#	Program:	/corina/corina34_cracker 3.40 0067  02.08.2006

@<TRIPOS>MOLECULE
ASD00071053
  35   37    0    0    0
SMALL
NO_CHARGES


@<TRIPOS>ATOM
   1 N1             0.9564     1.2417     1.3096 N.ar    
   2 C2             1.1099    -0.0646     1.2412 C.ar    
   3 C3             1.0416    -0.7461     0.0165 C.ar    
   4 C4             0.8120    -0.0551    -1.1339 C.ar    
   5 C5             0.6479     1.3447    -1.0543 C.ar    
   6 N6             0.4201     2.0743    -2.1483 N.ar    
   7 C7             0.2664     3.3750    -2.0806 C.ar    
   8 C8             0.3332     4.0557    -0.8674 C.ar    
   9 C9             0.5637     3.3671     0.2896 C.ar    
  10 C10            0.7287     1.9708     0.2126 C.ar    
  11 N11            1.3445    -0.7820     2.4047 N.pl3   
  12 C12            1.2228    -2.2415    -0.0255 C.3     
  13 C13            0.9708    -2.7390    -1.4255 C.ar    
  14 C14            2.0235    -2.8697    -2.3142 C.ar    
  15 C15            1.7910    -3.3264    -3.6007 C.ar    
  16 C16            0.5079    -3.6524    -3.9991 C.ar    
  17 C17           -0.5453    -3.5237    -3.1147 C.ar    
  18 C18           -0.3153    -3.0717    -1.8230 C.ar    
  19 O19           -1.3501    -2.9497    -0.9505 O.3     
  20 C20           -2.6476    -3.3105    -1.4284 C.3     
  21 F21            3.2780    -2.5513    -1.9269 F       
  22 H22            0.7571    -0.5654    -2.0842 H       
  23 H23            0.0839     3.9318    -2.9878 H       
  24 H24            0.2031     5.1275    -0.8414 H       
  25 H25            0.6180     3.8802     1.2384 H       
  26 H26            1.4748    -0.3147     3.2447 H       
  27 H27            1.3782    -1.7511     2.3785 H       
  28 H28            2.2411    -2.4926     0.2716 H       
  29 H29            0.5179    -2.7123     0.6598 H       
  30 H30            2.6131    -3.4278    -4.2937 H       
  31 H31            0.3289    -4.0077    -5.0031 H       
  32 H32           -1.5472    -3.7783    -3.4274 H       
  33 H33           -3.3803    -3.1664    -0.6343 H       
  34 H34           -2.9080    -2.6835    -2.2811 H       
  35 H35           -2.6442    -4.3567    -1.7342 H       
@<TRIPOS>BOND
   1    1    2 ar
   2    1   10 ar
   3    2    3 ar
   4    2   11 1
   5    3    4 ar
   6    3   12 1
   7    4    5 ar
   8    4   22 1
   9    5    6 ar
  10    5   10 ar
  11    6    7 ar
  12    7    8 ar
  13    7   23 1
  14    8    9 ar
  15    8   24 1
  16    9   10 ar
  17    9   25 1
  18   11   26 1
  19   11   27 1
  20   12   13 1
  21   12   28 1
  22   12   29 1
  23   13   14 ar
  24   13   18 ar
  25   14   15 ar
  26   14   21 1
  27   15   16 ar
  28   15   30 1
  29   16   17 ar
  30   16   31 1
  31   17   18 ar
  32   17   32 1
  33   18   19 1
  34   19   20 1
  35   20   33 1
  36   20   34 1
  37   20   35 1

#	End of record

