#	Name: ASD07930756
#	Creating user name:	WinNT
#	Creation time:	15. 06. 2019 21:13

#	Modifying user name:	WinNT
#	Modification time:	15. 06. 2019 21:13

#	Program:	/corina/corina34_cracker 3.40 0067  02.08.2006

@<TRIPOS>MOLECULE
ASD07930756
  42   44    0    0    0
SMALL
NO_CHARGES


@<TRIPOS>ATOM
   1 C1            -0.0087     1.4559     0.0047 C.3     
   2 N2             0.8167    -0.4278    -2.1588 N.2     
   3 N3            -0.8714    -1.7904    -1.2900 N.pl3   
   4 C4            -0.8977    -2.8289    -0.2547 C.3     
   5 C5            -1.2112    -2.1830     1.1020 C.3     
   6 S6             0.0275    -0.8867     1.4173 S.o2    
   7 N7             0.0087    -0.0090     0.0010 N.am    
   8 C8             0.0098    -0.7341    -1.1821 C.2     
   9 C9             0.4660    -3.5195    -0.1889 C.3     
  10 O10           -0.4343     0.0221     2.4072 O.2     
  11 O11            1.3343    -1.4416     1.4766 O.2     
  12 C12           -1.9613    -3.8437    -0.5867 C.2     
  13 S13           -3.2970    -4.2060     0.4110 S.3     
  14 C14           -3.8943    -5.3955    -0.7378 C.2     
  15 C15           -3.0465    -5.4476    -1.8090 C.2     
  16 C16           -1.9870    -4.5769    -1.7066 C.2     
  17 Cl17          -0.7662    -4.4466    -2.9339 Cl      
  18 C18           -5.1063    -6.2021    -0.5732 C.2     
  19 O19           -5.7910    -6.0749     0.4249 O.2     
  20 N20           -5.4631    -7.0849    -1.5271 N.am    
  21 C21           -6.5533    -7.9276    -1.3235 C.ar    
  22 N22           -7.1749    -7.9251    -0.1549 N.ar    
  23 C23           -8.2111    -8.7075     0.0794 C.ar    
  24 C24           -8.6869    -9.5629    -0.8943 C.ar    
  25 C25           -8.0628    -9.5960    -2.1342 C.ar    
  26 C26           -6.9822    -8.7599    -2.3518 C.ar    
  27 H27            1.0146     1.8315    -0.0004 H       
  28 H28           -0.5321     1.8153    -0.8813 H       
  29 H29           -0.5215     1.8109     0.8987 H       
  30 H30            0.8040    -0.9456    -2.9790 H       
  31 H31           -1.4696    -1.8482    -2.0514 H       
  32 H32           -2.2073    -1.7412     1.0772 H       
  33 H33           -1.1625    -2.9368     1.8879 H       
  34 H34            1.2339    -2.7849     0.0533 H       
  35 H35            0.4457    -4.2911     0.5807 H       
  36 H36            0.6898    -3.9745    -1.1537 H       
  37 H37           -3.1960    -6.1044    -2.6533 H       
  38 H38           -4.9606    -7.1333    -2.3554 H       
  39 H39           -8.6932    -8.6786     1.0454 H       
  40 H40           -9.5355   -10.2000    -0.6935 H       
  41 H41           -8.4157   -10.2562    -2.9126 H       
  42 H42           -6.4735    -8.7596    -3.3045 H       
@<TRIPOS>BOND
   1    1    7 1
   2    1   27 1
   3    1   28 1
   4    1   29 1
   5    2    8 2
   6    2   30 1
   7    3    4 1
   8    3    8 1
   9    3   31 1
  10    4    5 1
  11    4    9 1
  12    4   12 1
  13    5    6 1
  14    5   32 1
  15    5   33 1
  16    6    7 am
  17    6   10 2
  18    6   11 2
  19    7    8 1
  20    9   34 1
  21    9   35 1
  22    9   36 1
  23   12   13 1
  24   12   16 2
  25   13   14 1
  26   14   15 2
  27   14   18 1
  28   15   16 1
  29   15   37 1
  30   16   17 1
  31   18   19 2
  32   18   20 am
  33   20   21 1
  34   20   38 1
  35   21   22 ar
  36   21   26 ar
  37   22   23 ar
  38   23   24 ar
  39   23   39 1
  40   24   25 ar
  41   24   40 1
  42   25   26 ar
  43   25   41 1
  44   26   42 1

#	End of record

