#	Name: ASD02030233
#	Creating user name:	WinNT
#	Creation time:	15. 06. 2019 20:14

#	Modifying user name:	WinNT
#	Modification time:	15. 06. 2019 20:14

#	Program:	/corina/corina34_cracker 3.40 0067  02.08.2006

@<TRIPOS>MOLECULE
ASD02030233
  71   76    0    0    0
SMALL
NO_CHARGES


@<TRIPOS>ATOM
   1 N1            -1.0019     2.1194    -1.3682 N.am    
   2 C2            -0.9411     0.6918    -1.7117 C.3     
   3 C3            -1.0992    -0.1288    -0.4257 C.3     
   4 N4            -2.2675     0.3732     0.3110 N.am    
   5 C5            -2.3284     1.8009     0.6545 C.3     
   6 C6            -2.1676     2.6204    -0.6266 C.3     
   7 C7            -0.0039     2.9533    -1.7222 C.2     
   8 C8             1.2137     2.4171    -2.3667 C.2     
   9 N9             2.3039     3.0977    -2.6479 N.2     
  10 N10            1.4045     1.1456    -2.7638 N.2     
  11 C11            2.6037     1.0761    -3.2832 C.2     
  12 N12            3.1542     2.3049    -3.2037 N.pl3   
  13 C13            4.4343     2.6596    -3.6504 C.ar    
  14 O14           -0.1050     4.1462    -1.5114 O.2     
  15 C15           -3.2655    -0.4606     0.6649 C.2     
  16 C16           -3.1917    -1.8925     0.3115 C.ar    
  17 O17           -4.2266    -0.0339     1.2752 O.2     
  18 C18            4.8832     3.9657    -3.5088 C.ar    
  19 C19            6.1456     4.3128    -3.9495 C.ar    
  20 C20            6.9622     3.3614    -4.5317 C.ar    
  21 C21            6.5178     2.0583    -4.6750 C.ar    
  22 C22            5.2581     1.7040    -4.2303 C.ar    
  23 C23           -3.6783     2.1161     1.3021 C.3     
  24 C24           -4.3576    -2.6004     0.0378 C.ar    
  25 Cl25           7.5460     0.8668    -5.4077 Cl      
  26 C26           -4.2784    -3.9517    -0.2955 C.ar    
  27 C27           -3.0208    -4.5801    -0.3502 C.ar    
  28 C28           -1.8658    -3.8566    -0.0735 C.ar    
  29 C29           -1.9468    -2.5329     0.2471 C.ar    
  30 N30           -5.2056    -4.8940    -0.6089 N.2     
  31 C31           -4.6123    -6.0271    -0.8454 C.2     
  32 N32           -3.2662    -5.8901    -0.7002 N.pl3   
  33 C33           -2.2626    -6.9416    -0.8831 C.3     
  34 C34           -5.3137    -7.3058    -1.2250 C.3     
  35 C35           -5.4358    -7.3877    -2.7479 C.3     
  36 C36           -6.0371    -8.7440    -3.1562 C.3     
  37 C37           -7.3523    -8.4365    -3.9016 C.3     
  38 C38           -7.1644    -6.9901    -4.4227 C.3     
  39 C39           -6.4066    -6.3034    -3.2593 C.3     
  40 H40           -1.7473     0.4472    -2.4032 H       
  41 H41            0.0206     0.4672    -2.1731 H       
  42 H42           -1.2491    -1.1786    -0.6778 H       
  43 H43           -0.2054    -0.0216     0.1889 H       
  44 H44           -1.5221     2.0454     1.3460 H       
  45 H45           -2.0178     3.6699    -0.3731 H       
  46 H46           -3.0601     2.5143    -1.2433 H       
  47 H47            3.0692     0.1942    -3.6979 H       
  48 H48            4.2458     4.7099    -3.0547 H       
  49 H49            6.4949     5.3288    -3.8393 H       
  50 H50            7.9486     3.6354    -4.8758 H       
  51 H51            4.9115     0.6873    -4.3418 H       
  52 H52           -3.7587     1.5859     2.2510 H       
  53 H53           -3.7552     3.1891     1.4778 H       
  54 H54           -4.4826     1.7980     0.6387 H       
  55 H55           -5.3171    -2.1068     0.0835 H       
  56 H56           -0.9023    -4.3426    -0.1162 H       
  57 H57           -1.0460    -1.9769     0.4609 H       
  58 H58           -1.9320    -6.9517    -1.9217 H       
  59 H59           -1.4100    -6.7473    -0.2323 H       
  60 H60           -2.6990    -7.9082    -0.6313 H       
  61 H61           -4.7394    -8.1573    -0.8602 H       
  62 H62           -6.3084    -7.3207    -0.7794 H       
  63 H63           -4.4561    -7.2599    -3.2082 H       
  64 H64           -5.3496    -9.2740    -3.8154 H       
  65 H65           -6.2420    -9.3438    -2.2694 H       
  66 H66           -7.4897    -9.1270    -4.7337 H       
  67 H67           -8.1995    -8.4885    -3.2177 H       
  68 H68           -6.5642    -6.9822    -5.3325 H       
  69 H69           -8.1292    -6.5116    -4.5909 H       
  70 H70           -7.1011    -6.0109    -2.4717 H       
  71 H71           -5.8538    -5.4372    -3.6228 H       
@<TRIPOS>BOND
   1    1    2 1
   2    1    7 am
   3    1    6 1
   4    2    3 1
   5    2   40 1
   6    2   41 1
   7    3    4 1
   8    3   42 1
   9    3   43 1
  10    4    5 1
  11    4   15 am
  12    5    6 1
  13    5   23 1
  14    5   44 1
  15    6   45 1
  16    6   46 1
  17    7    8 1
  18    7   14 2
  19    8    9 2
  20    8   10 1
  21    9   12 1
  22   10   11 2
  23   11   12 1
  24   11   47 1
  25   12   13 1
  26   13   18 ar
  27   13   22 ar
  28   15   16 1
  29   15   17 2
  30   16   24 ar
  31   16   29 ar
  32   18   19 ar
  33   18   48 1
  34   19   20 ar
  35   19   49 1
  36   20   21 ar
  37   20   50 1
  38   21   22 ar
  39   21   25 1
  40   22   51 1
  41   23   52 1
  42   23   53 1
  43   23   54 1
  44   24   26 ar
  45   24   55 1
  46   26   27 ar
  47   26   30 1
  48   27   28 ar
  49   27   32 1
  50   28   29 ar
  51   28   56 1
  52   29   57 1
  53   30   31 2
  54   31   32 1
  55   31   34 1
  56   32   33 1
  57   33   58 1
  58   33   59 1
  59   33   60 1
  60   34   35 1
  61   34   61 1
  62   34   62 1
  63   35   36 1
  64   35   39 1
  65   35   63 1
  66   36   37 1
  67   36   64 1
  68   36   65 1
  69   37   38 1
  70   37   66 1
  71   37   67 1
  72   38   39 1
  73   38   68 1
  74   38   69 1
  75   39   70 1
  76   39   71 1

#	End of record

