#	Name: ASD01810941
#	Creating user name:	WinNT
#	Creation time:	15. 06. 2019 19:25

#	Modifying user name:	WinNT
#	Modification time:	15. 06. 2019 19:25

#	Program:	/corina/corina34_cracker 3.40 0067  02.08.2006

@<TRIPOS>MOLECULE
ASD01810941
  34   35    0    0    0
SMALL
NO_CHARGES


@<TRIPOS>ATOM
   1 C1            -0.0098     1.4717     0.0872 C.2     
   2 C2             0.0060    -0.0047     0.0394 C.ar    
   3 C3             1.2134    -0.6884    -0.1185 C.ar    
   4 C4             1.2214    -2.0669    -0.1619 C.ar    
   5 C5             0.0366    -2.7729    -0.0498 C.ar    
   6 C6            -1.1638    -2.1020     0.1064 C.ar    
   7 C7            -1.1853    -0.7228     0.1577 C.ar    
   8 O8             1.0355     2.0904     0.0945 O.2     
   9 O9            -1.1836     2.1321     0.1171 O.3     
  10 C10            2.5049     0.0785    -0.2417 C.3     
  11 I11           -2.9511    -3.1822     0.2736 I       
  12 C12            0.0533    -4.2790    -0.0986 C.3     
  13 C13           -0.0303    -4.8363     1.3238 C.3     
  14 C14           -0.1430    -6.3690     1.3793 C.3     
  15 C15            0.8148    -6.3173     2.5813 C.3     
  16 C16            1.3390    -4.9908     2.0064 C.3     
  17 C17           -1.1231     3.5821     0.1635 C.3     
  18 H18            2.1547    -2.5967    -0.2839 H       
  19 H19           -2.1220    -0.2003     0.2841 H       
  20 H20            2.8702     0.3369     0.7522 H       
  21 H21            3.2455    -0.5369    -0.7524 H       
  22 H22            2.3329     0.9901    -0.8140 H       
  23 H23           -0.7991    -4.6332    -0.6783 H       
  24 H24            0.9773    -4.6171    -0.5676 H       
  25 H25           -0.7699    -4.3217     1.9373 H       
  26 H26           -1.1419    -6.7245     1.6320 H       
  27 H27            0.2776    -6.8696     0.5071 H       
  28 H28            0.3073    -6.2076     3.5397 H       
  29 H29            1.5567    -7.1159     2.5831 H       
  30 H30            2.1647    -5.1146     1.3057 H       
  31 H31            1.5365    -4.2337     2.7653 H       
  32 H32           -0.5881     3.8950     1.0602 H       
  33 H33           -0.6011     3.9524    -0.7188 H       
  34 H34           -2.1347     3.9875     0.1840 H       
@<TRIPOS>BOND
   1    1    2 1
   2    1    8 2
   3    1    9 1
   4    2    3 ar
   5    2    7 ar
   6    3    4 ar
   7    3   10 1
   8    4    5 ar
   9    4   18 1
  10    5    6 ar
  11    5   12 1
  12    6    7 ar
  13    6   11 1
  14    7   19 1
  15    9   17 1
  16   10   20 1
  17   10   21 1
  18   10   22 1
  19   12   13 1
  20   12   23 1
  21   12   24 1
  22   13   14 1
  23   13   16 1
  24   13   25 1
  25   14   15 1
  26   14   26 1
  27   14   27 1
  28   15   16 1
  29   15   28 1
  30   15   29 1
  31   16   30 1
  32   16   31 1
  33   17   32 1
  34   17   33 1
  35   17   34 1

#	End of record

