#	Name: ASD01917423
#	Creating user name:	WinNT
#	Creation time:	15. 06. 2019 20:09

#	Modifying user name:	WinNT
#	Modification time:	15. 06. 2019 20:09

#	Program:	/corina/corina34_cracker 3.40 0067  02.08.2006

@<TRIPOS>MOLECULE
ASD01917423
  48   52    0    0    0
SMALL
NO_CHARGES


@<TRIPOS>ATOM
   1 C1            -0.0171     1.4103     0.0098 C.ar    
   2 C2             0.0021    -0.0041     0.0020 C.ar    
   3 C3            -1.1917    -0.7251     0.0415 C.ar    
   4 C4            -2.3837    -0.0627     0.0742 C.ar    
   5 C5            -2.4205     1.3390     0.0659 C.ar    
   6 C6            -1.2404     2.0763     0.0357 C.ar    
   7 N7             1.1599     2.0757     0.0021 N.2     
   8 C8             2.3196     1.4678    -0.0397 C.2     
   9 N9             2.4194     0.1196    -0.1575 N.am    
  10 C10            1.3095    -0.6626    -0.0625 C.2     
  11 O11            1.4005    -1.8763    -0.0319 O.2     
  12 C12           -3.7208     2.0380     0.0899 C.2     
  13 C13            3.5359     2.3448     0.1019 C.3     
  14 C14            4.7921     1.6918    -0.4309 C.3     
  15 C15            4.8959     0.2353    -0.0271 C.3     
  16 C16            3.6787    -0.5623    -0.4369 C.3     
  17 C17            6.1340    -0.3752    -0.6870 C.3     
  18 C18            5.0549     0.1520     1.4923 C.3     
  19 C19           -4.9394     1.4495     0.1205 C.2     
  20 N20           -5.9600     2.2663     0.1375 N.2     
  21 C21           -5.7022     3.5444     0.1236 C.2     
  22 S22           -3.9574     3.7847     0.0914 S.3     
  23 C23           -6.7139     4.6214     0.1387 C.ar    
  24 N24           -6.3249     5.8915     0.1215 N.ar    
  25 C25           -7.1952     6.8799     0.1336 C.ar    
  26 C26           -8.5551     6.6291     0.1655 C.ar    
  27 C27           -9.0057     5.3163     0.1844 C.ar    
  28 C28           -8.0709     4.2964     0.1653 C.ar    
  29 H29           -1.1721    -1.8049     0.0457 H       
  30 H30           -3.3068    -0.6225     0.1064 H       
  31 H31           -1.2729     3.1558     0.0320 H       
  32 H32            3.3648     3.2741    -0.4413 H       
  33 H33            3.6807     2.5778     1.1569 H       
  34 H34            4.7909     1.7580    -1.5189 H       
  35 H35            5.6597     2.2281    -0.0466 H       
  36 H36            3.6875    -1.5127     0.0967 H       
  37 H37            3.7370    -0.7644    -1.5064 H       
  38 H38            7.0233     0.1625    -0.3582 H       
  39 H39            6.2176    -1.4240    -0.4023 H       
  40 H40            6.0431    -0.2989    -1.7705 H       
  41 H41            4.1892     0.6068     1.9737 H       
  42 H42            5.1305    -0.8930     1.7930 H       
  43 H43            5.9583     0.6828     1.7927 H       
  44 H44           -5.0605     0.3763     0.1297 H       
  45 H45           -6.8422     7.9004     0.1189 H       
  46 H46           -9.2599     7.4473     0.1760 H       
  47 H47          -10.0627     5.0959     0.2094 H       
  48 H48           -8.3866     3.2637     0.1788 H       
@<TRIPOS>BOND
   1    1    2 ar
   2    1    7 1
   3    1    6 ar
   4    2    3 ar
   5    2   10 1
   6    3    4 ar
   7    3   29 1
   8    4    5 ar
   9    4   30 1
  10    5    6 ar
  11    5   12 1
  12    6   31 1
  13    7    8 2
  14    8    9 1
  15    8   13 1
  16    9   10 am
  17    9   16 1
  18   10   11 2
  19   12   19 2
  20   12   22 1
  21   13   14 1
  22   13   32 1
  23   13   33 1
  24   14   15 1
  25   14   34 1
  26   14   35 1
  27   15   16 1
  28   15   17 1
  29   15   18 1
  30   16   36 1
  31   16   37 1
  32   17   38 1
  33   17   39 1
  34   17   40 1
  35   18   41 1
  36   18   42 1
  37   18   43 1
  38   19   20 1
  39   19   44 1
  40   20   21 2
  41   21   23 1
  42   21   22 1
  43   23   24 ar
  44   23   28 ar
  45   24   25 ar
  46   25   26 ar
  47   25   45 1
  48   26   27 ar
  49   26   46 1
  50   27   28 ar
  51   27   47 1
  52   28   48 1

#	End of record

