#	Name: ASD08150372
#	Creating user name:	WinNT
#	Creation time:	15. 06. 2019 21:15

#	Modifying user name:	WinNT
#	Modification time:	15. 06. 2019 21:15

#	Program:	/corina/corina34_cracker 3.40 0067  02.08.2006

@<TRIPOS>MOLECULE
ASD08150372
  52   57    0    0    0
SMALL
NO_CHARGES


@<TRIPOS>ATOM
   1 N1             0.8739     2.8962    -1.6419 N.am    
   2 C2             1.3023     2.2690    -2.7545 C.2     
   3 C3             2.5124     1.5458    -2.7571 C.2     
   4 C4             3.2664     1.4718    -1.6308 C.2     
   5 C5             2.8186     2.1304    -0.4584 C.ar    
   6 C6             3.5624     2.0853     0.7362 C.ar    
   7 N7             3.1469     2.6938     1.8163 N.ar    
   8 C8             2.0006     3.3900     1.8519 C.ar    
   9 C9             1.1880     3.4891     0.6956 C.ar    
  10 C10            1.6093     2.8418    -0.4896 C.ar    
  11 C11           -0.0054     4.2161     0.7434 C.ar    
  12 C12           -0.3812     4.8338     1.9253 C.ar    
  13 C13            0.4283     4.7313     3.0655 C.ar    
  14 C14            1.5919     4.0282     3.0345 C.ar    
  15 O15            0.6344     2.3273    -3.7728 O.2     
  16 C16           -1.6451     5.6074     1.9845 C.ar    
  17 C17           -0.3289     3.6131    -1.6666 C.ar    
  18 C18           -0.3223     4.9718    -1.9548 C.ar    
  19 C19           -1.5085     5.6796    -1.9794 C.ar    
  20 C20           -2.7055     5.0370    -1.7175 C.ar    
  21 C21           -2.7170     3.6778    -1.4292 C.ar    
  22 C22           -1.5290     2.9651    -1.4088 C.ar    
  23 F23           -3.8640     5.7317    -1.7418 F       
  24 C24           -2.7760     5.1694     1.2771 C.ar    
  25 N25           -3.9043     5.8318     1.3110 N.ar    
  26 C26           -4.0367     6.9575     2.0207 C.ar    
  27 C27           -2.9400     7.4643     2.7626 C.ar    
  28 C28           -1.7204     6.7660     2.7440 C.ar    
  29 C29           -5.2567     7.6556     2.0444 C.ar    
  30 C30           -5.3676     8.7993     2.7736 C.ar    
  31 C31           -4.2882     9.2959     3.5018 C.ar    
  32 C32           -3.0907     8.6485     3.5039 C.ar    
  33 O33           -3.8934     3.0468    -1.1721 O.3     
  34 C34           -3.8301     1.6487    -0.8834 C.3     
  35 H35            2.8404     1.0488    -3.6581 H       
  36 H36            4.1939     0.9186    -1.6280 H       
  37 H37            4.4929     1.5377     0.7610 H       
  38 H38           -0.6294     4.2959    -0.1345 H       
  39 H39            0.1238     5.2176     3.9805 H       
  40 H40            2.2032     3.9596     3.9221 H       
  41 H41            0.6109     5.4754    -2.1595 H       
  42 H42           -1.5013     6.7362    -2.2029 H       
  43 H43           -1.5364     1.9077    -1.1889 H       
  44 H44           -2.7133     4.2646     0.6908 H       
  45 H45           -0.8654     7.1247     3.2979 H       
  46 H46           -6.1034     7.2855     1.4853 H       
  47 H47           -6.3075     9.3311     2.7878 H       
  48 H48           -4.4032    10.2060     4.0718 H       
  49 H49           -2.2612     9.0428     4.0722 H       
  50 H50           -3.3946     1.1218    -1.7324 H       
  51 H51           -3.2122     1.4877    -0.0000 H       
  52 H52           -4.8353     1.2702    -0.6976 H       
@<TRIPOS>BOND
   1    1    2 am
   2    1   10 1
   3    1   17 1
   4    2    3 1
   5    2   15 2
   6    3    4 2
   7    3   35 1
   8    4    5 1
   9    4   36 1
  10    5    6 ar
  11    5   10 ar
  12    6    7 ar
  13    6   37 1
  14    7    8 ar
  15    8    9 ar
  16    8   14 ar
  17    9   10 ar
  18    9   11 ar
  19   11   12 ar
  20   11   38 1
  21   12   13 ar
  22   12   16 1
  23   13   14 ar
  24   13   39 1
  25   14   40 1
  26   16   24 ar
  27   16   28 ar
  28   17   18 ar
  29   17   22 ar
  30   18   19 ar
  31   18   41 1
  32   19   20 ar
  33   19   42 1
  34   20   21 ar
  35   20   23 1
  36   21   22 ar
  37   21   33 1
  38   22   43 1
  39   24   25 ar
  40   24   44 1
  41   25   26 ar
  42   26   27 ar
  43   26   29 ar
  44   27   28 ar
  45   27   32 ar
  46   28   45 1
  47   29   30 ar
  48   29   46 1
  49   30   31 ar
  50   30   47 1
  51   31   32 ar
  52   31   48 1
  53   32   49 1
  54   33   34 1
  55   34   50 1
  56   34   51 1
  57   34   52 1

#	End of record

