#	Name: ASD03092898
#	Creating user name:	WinNT
#	Creation time:	15. 06. 2019 20:33

#	Modifying user name:	WinNT
#	Modification time:	15. 06. 2019 20:33

#	Program:	/corina/corina34_cracker 3.40 0067  02.08.2006

@<TRIPOS>MOLECULE
ASD03092898
  46   48    0    0    0
SMALL
NO_CHARGES


@<TRIPOS>ATOM
   1 C1             0.1930     1.4089     0.2515 C.3     
   2 C2             0.1922    -0.1197     0.1848 C.3     
   3 C3             0.8390    -0.5667    -1.1008 C.2     
   4 O4             1.2592     0.2562    -1.8864 O.2     
   5 N5             0.9504    -1.8810    -1.3777 N.am    
   6 C6             0.4428    -2.8751    -0.4288 C.3     
   7 C7             1.5461    -2.2927    -2.5617 C.2     
   8 N8             2.0328    -1.5013    -3.4664 N.2     
   9 C9             2.5672    -2.0621    -4.5382 C.2     
  10 C10            2.5336    -3.4317    -4.5482 C.2     
  11 S11            1.7613    -3.9682    -3.0578 S.3     
  12 C12            3.0567    -4.3044    -5.6169 C.ar    
  13 C13            3.8821    -5.3858    -5.2989 C.ar    
  14 C14            4.3674    -6.1973    -6.3030 C.ar    
  15 C15            4.0387    -5.9424    -7.6228 C.ar    
  16 C16            3.2220    -4.8728    -7.9452 C.ar    
  17 C17            2.7244    -4.0566    -6.9510 C.ar    
  18 S18            4.6634    -6.9845    -8.8989 S.o2    
  19 N19            3.5653    -8.2048    -9.1168 N.am    
  20 O20            4.6470    -6.2122   -10.0916 O.2     
  21 O21            5.8399    -7.5909    -8.3818 O.2     
  22 C22            3.1560    -1.2707    -5.6429 C.ar    
  23 C23            4.3633    -1.6647    -6.2201 C.ar    
  24 C24            4.9073    -0.9237    -7.2488 C.ar    
  25 C25            4.2572     0.2092    -7.7084 C.ar    
  26 Cl26           4.9472     1.1366    -9.0036 Cl      
  27 C27            3.0586     0.6049    -7.1392 C.ar    
  28 C28            2.5026    -0.1318    -6.1138 C.ar    
  29 H29            1.2195     1.7736     0.2153 H       
  30 H30           -0.3651     1.8098    -0.5945 H       
  31 H31           -0.2748     1.7322     1.1814 H       
  32 H32            0.7503    -0.5206     1.0309 H       
  33 H33           -0.8343    -0.4844     0.2211 H       
  34 H34           -0.5980    -3.1007    -0.6610 H       
  35 H35            1.0374    -3.7856    -0.5035 H       
  36 H36            0.5113    -2.4786     0.5843 H       
  37 H37            4.1397    -5.5856    -4.2693 H       
  38 H38            5.0059    -7.0334    -6.0586 H       
  39 H39            2.9701    -4.6794    -8.9775 H       
  40 H40            2.0832    -3.2251    -7.2036 H       
  41 H41            3.4628    -8.6148    -9.9898 H       
  42 H42            3.0247    -8.5096    -8.3713 H       
  43 H43            4.8713    -2.5479    -5.8622 H       
  44 H44            5.8421    -1.2275    -7.6963 H       
  45 H45            2.5559     1.4894    -7.5016 H       
  46 H46            1.5655     0.1752    -5.6735 H       
@<TRIPOS>BOND
   1    1    2 1
   2    1   29 1
   3    1   30 1
   4    1   31 1
   5    2    3 1
   6    2   32 1
   7    2   33 1
   8    3    4 2
   9    3    5 am
  10    5    6 1
  11    5    7 1
  12    6   34 1
  13    6   35 1
  14    6   36 1
  15    7   11 1
  16    7    8 2
  17    8    9 1
  18    9   10 2
  19    9   22 1
  20   10   11 1
  21   10   12 1
  22   12   17 ar
  23   12   13 ar
  24   13   14 ar
  25   13   37 1
  26   14   15 ar
  27   14   38 1
  28   15   16 ar
  29   15   18 1
  30   16   17 ar
  31   16   39 1
  32   17   40 1
  33   18   19 am
  34   18   20 2
  35   18   21 2
  36   19   41 1
  37   19   42 1
  38   22   28 ar
  39   22   23 ar
  40   23   24 ar
  41   23   43 1
  42   24   25 ar
  43   24   44 1
  44   25   26 1
  45   25   27 ar
  46   27   28 ar
  47   27   45 1
  48   28   46 1

#	End of record

