#	Name: ASD03731267
#	Creating user name:	WinNT
#	Creation time:	15. 06. 2019 20:45

#	Modifying user name:	WinNT
#	Modification time:	15. 06. 2019 20:45

#	Program:	/corina/corina34_cracker 3.40 0067  02.08.2006

@<TRIPOS>MOLECULE
ASD03731267
  61   67    0    0    0
SMALL
NO_CHARGES


@<TRIPOS>ATOM
   1 N1            -0.0162     1.3436     0.0094 N.am    
   2 C2             0.0559     0.0126     0.2091 C.2     
   3 O3             1.1398    -0.5296     0.3073 O.2     
   4 N4            -1.0734    -0.7173     0.3000 N.am    
   5 C5            -0.9951    -2.1640     0.5170 C.3     
   6 C6            -2.4080    -2.7474     0.5815 C.3     
   7 O7             2.5534    -7.0756     3.4698 O.3     
   8 C8             3.0243    -8.3616     3.9141 C.3     
   9 O9             1.8607    -8.9652     4.5095 O.3     
  10 C10            0.7909    -8.3995     3.8768 C.ar    
  11 C11            1.2173    -7.2371     3.2386 C.ar    
  12 C12           -0.5337    -8.7893     3.7917 C.ar    
  13 C13           -1.4484    -8.0261     3.0724 C.ar    
  14 C14           -1.0123    -6.8625     2.4460 C.ar    
  15 C15            0.3089    -6.4744     2.5239 C.ar    
  16 O16           -2.7776    -8.2377     2.8514 O.3     
  17 C17           -2.2195    -6.2532     1.7845 C.3     
  18 C18           -3.3916    -7.0041     2.4309 C.3     
  19 N19           -2.3296    -4.1941     0.7986 N.am    
  20 C20           -2.3075    -4.7722     2.0161 C.2     
  21 C21           -2.2002    -6.4224     0.2943 C.ar    
  22 C22           -2.1327    -7.5173    -0.5381 C.ar    
  23 C23           -2.1348    -7.3452    -1.9109 C.ar    
  24 C24           -2.2043    -6.0712    -2.4448 C.ar    
  25 C25           -2.2712    -4.9714    -1.6152 C.ar    
  26 C26           -2.2700    -5.1352    -0.2321 C.ar    
  27 O27           -2.3506    -4.2070     3.0883 O.2     
  28 C28            4.8393     4.2627    -0.0987 C.3     
  29 C29            5.5884     3.3962    -1.1331 C.3     
  30 C30            4.8749     2.0338    -1.0030 C.3     
  31 C31            3.4836     2.3613    -0.5043 C.ar    
  32 C32            2.3291     1.5983    -0.5059 C.ar    
  33 C33            1.1509     2.1158     0.0124 C.ar    
  34 C34            1.1333     3.4029     0.5338 C.ar    
  35 C35            2.2867     4.1600     0.5338 C.ar    
  36 C36            3.4630     3.6424     0.0155 C.ar    
  37 H37           -0.8766     1.7656    -0.1403 H       
  38 H38           -1.9381    -0.2848     0.2217 H       
  39 H39           -0.4486    -2.6257    -0.3053 H       
  40 H40           -0.4766    -2.3632     1.4549 H       
  41 H41           -2.9545    -2.2857     1.4039 H       
  42 H42           -2.9265    -2.5482    -0.3564 H       
  43 H43            3.3732    -8.9546     3.0687 H       
  44 H44            3.8162    -8.2448     4.6540 H       
  45 H45           -0.8601    -9.6919     4.2867 H       
  46 H46            0.6358    -5.5732     2.0265 H       
  47 H47           -4.1797    -7.1928     1.7019 H       
  48 H48           -3.7792    -6.4529     3.2877 H       
  49 H49           -2.0783    -8.5111    -0.1190 H       
  50 H50           -2.0827    -8.2037    -2.5641 H       
  51 H51           -2.2058    -5.9370    -3.5164 H       
  52 H52           -2.3247    -3.9797    -2.0396 H       
  53 H53            5.3502     4.2293     0.8636 H       
  54 H54            4.7625     5.2912    -0.4516 H       
  55 H55            5.4687     3.8019    -2.1377 H       
  56 H56            6.6432     3.3075    -0.8730 H       
  57 H57            4.8224     1.5402    -1.9734 H       
  58 H58            5.3954     1.4014    -0.2838 H       
  59 H59            2.3451     0.5978    -0.9123 H       
  60 H60            0.2187     3.8102     0.9388 H       
  61 H61            2.2727     5.1609     0.9393 H       
@<TRIPOS>BOND
   1    1    2 am
   2    1   33 1
   3    1   37 1
   4    2    3 2
   5    2    4 am
   6    4    5 1
   7    4   38 1
   8    5    6 1
   9    5   39 1
  10    5   40 1
  11    6   19 1
  12    6   41 1
  13    6   42 1
  14    7    8 1
  15    7   11 1
  16    8    9 1
  17    8   43 1
  18    8   44 1
  19    9   10 1
  20   10   11 ar
  21   10   12 ar
  22   11   15 ar
  23   12   13 ar
  24   12   45 1
  25   13   14 ar
  26   13   16 1
  27   14   15 ar
  28   14   17 1
  29   15   46 1
  30   16   18 1
  31   17   18 1
  32   17   20 1
  33   17   21 1
  34   18   47 1
  35   18   48 1
  36   19   20 am
  37   19   26 1
  38   20   27 2
  39   21   22 ar
  40   21   26 ar
  41   22   23 ar
  42   22   49 1
  43   23   24 ar
  44   23   50 1
  45   24   25 ar
  46   24   51 1
  47   25   26 ar
  48   25   52 1
  49   28   29 1
  50   28   36 1
  51   28   53 1
  52   28   54 1
  53   29   30 1
  54   29   55 1
  55   29   56 1
  56   30   31 1
  57   30   57 1
  58   30   58 1
  59   31   32 ar
  60   31   36 ar
  61   32   33 ar
  62   32   59 1
  63   33   34 ar
  64   34   35 ar
  65   34   60 1
  66   35   36 ar
  67   35   61 1

#	End of record

