#	Name: ASD01880287
#	Creating user name:	WinNT
#	Creation time:	15. 06. 2019 19:40

#	Modifying user name:	WinNT
#	Modification time:	15. 06. 2019 19:40

#	Program:	/corina/corina34_cracker 3.40 0067  02.08.2006

@<TRIPOS>MOLECULE
ASD01880287
  39   41    0    0    0
SMALL
NO_CHARGES


@<TRIPOS>ATOM
   1 C1            -0.0163     1.3493     0.0095 C.2     
   2 C2             0.0021    -0.0041     0.0020 C.2     
   3 N3            -1.1557    -0.7131     0.0093 N.am    
   4 C4            -2.3471    -0.0857     0.0245 C.2     
   5 C5            -2.4025     1.3185     0.0330 C.2     
   6 C6            -1.2403     2.0325     0.0307 C.2     
   7 O7            -3.3795    -0.7370     0.0305 O.2     
   8 C8            -1.1083    -2.1773    -0.0000 C.3     
   9 C9            -1.0779    -2.6879     1.4175 C.ar    
  10 C10           -2.2607    -2.9606     2.0786 C.ar    
  11 C11           -2.2336    -3.4296     3.3805 C.ar    
  12 C12           -1.0191    -3.6253     4.0202 C.ar    
  13 C13            0.1636    -3.3513     3.3554 C.ar    
  14 C14            0.1333    -2.8884     2.0534 C.ar    
  15 F15           -0.9902    -4.0826     5.2911 F       
  16 F16           -3.3893    -3.6960     4.0275 F       
  17 C17            1.2781     2.1210     0.0012 C.3     
  18 O18            2.3771     1.2078    -0.0142 O.3     
  19 C19            3.6254     1.7448    -0.0232 C.ar    
  20 C20            4.7381     0.9164    -0.0383 C.ar    
  21 C21            6.0060     1.4648    -0.0474 C.ar    
  22 C22            6.1666     2.8381    -0.0415 C.ar    
  23 C23            5.0593     3.6659    -0.0260 C.ar    
  24 C24            3.7892     3.1225    -0.0231 C.ar    
  25 H25            0.9478    -0.5255    -0.0102 H       
  26 H26           -3.3553     1.8270     0.0449 H       
  27 H27           -1.2628     3.1122     0.0372 H       
  28 H28           -1.9911    -2.5662    -0.5074 H       
  29 H29           -0.2122    -2.5085    -0.5248 H       
  30 H30           -3.2060    -2.8074     1.5793 H       
  31 H31            1.1102    -3.5033     3.8526 H       
  32 H32            1.0564    -2.6747     1.5353 H       
  33 H33            1.3185     2.7532    -0.8858 H       
  34 H34            1.3355     2.7436     0.8941 H       
  35 H35            4.6132    -0.1563    -0.0425 H       
  36 H36            6.8726     0.8203    -0.0588 H       
  37 H37            7.1587     3.2648    -0.0486 H       
  38 H38            5.1874     4.7382    -0.0207 H       
  39 H39            2.9246     3.7695    -0.0110 H       
@<TRIPOS>BOND
   1    1    2 2
   2    1   17 1
   3    1    6 1
   4    2    3 1
   5    2   25 1
   6    3    4 am
   7    3    8 1
   8    4    5 1
   9    4    7 2
  10    5    6 2
  11    5   26 1
  12    6   27 1
  13    8    9 1
  14    8   28 1
  15    8   29 1
  16    9   10 ar
  17    9   14 ar
  18   10   11 ar
  19   10   30 1
  20   11   12 ar
  21   11   16 1
  22   12   13 ar
  23   12   15 1
  24   13   14 ar
  25   13   31 1
  26   14   32 1
  27   17   18 1
  28   17   33 1
  29   17   34 1
  30   18   19 1
  31   19   20 ar
  32   19   24 ar
  33   20   21 ar
  34   20   35 1
  35   21   22 ar
  36   21   36 1
  37   22   23 ar
  38   22   37 1
  39   23   24 ar
  40   23   38 1
  41   24   39 1

#	End of record

