#	Name: ASD01811832
#	Creating user name:	WinNT
#	Creation time:	15. 06. 2019 19:27

#	Modifying user name:	WinNT
#	Modification time:	15. 06. 2019 19:27

#	Program:	/corina/corina34_cracker 3.40 0067  02.08.2006

@<TRIPOS>MOLECULE
ASD01811832
  58   61    0    0    0
SMALL
NO_CHARGES


@<TRIPOS>ATOM
   1 C1            -0.0167     1.3805     0.0096 C.ar    
   2 C2             0.0021    -0.0041     0.0020 C.ar    
   3 C3            -1.1845    -0.7161     0.0090 C.ar    
   4 C4            -2.3942    -0.0535     0.0241 C.ar    
   5 C5            -2.4213     1.3425     0.0323 C.ar    
   6 C6            -1.2177     2.0512     0.0304 C.ar    
   7 C7             1.2777     2.1522     0.0014 C.3     
   8 C8             1.3184    -0.7376    -0.0144 C.3     
   9 C9            -1.1549    -2.2228    -0.0004 C.3     
  10 C10           -1.0078    -2.7311     1.4107 C.ar    
  11 C11           -2.1325    -2.9880     2.1724 C.ar    
  12 C12           -2.0002    -3.4541     3.4663 C.ar    
  13 C13           -0.7377    -3.6643     4.0009 C.ar    
  14 C14            0.3896    -3.4057     3.2343 C.ar    
  15 C15            0.2520    -2.9452     1.9394 C.ar    
  16 C16            1.7628    -3.6328     3.8120 C.3     
  17 O17           -0.6050    -4.1223     5.2735 O.3     
  18 C18           -1.8086    -4.3663     6.0040 C.3     
  19 C19           -3.5309     2.3149     0.0477 C.2     
  20 N20           -3.0504     3.5703     0.0501 N.am    
  21 C21           -1.5841     3.5142     0.0402 C.3     
  22 O22           -4.7107     2.0226     0.0563 O.2     
  23 C23           -3.8575     4.7928     0.0640 C.3     
  24 C24           -4.7300     4.8158     1.3228 C.3     
  25 C25           -5.6250     6.0585     1.2877 C.3     
  26 C26           -6.4581     6.0417     0.0035 C.3     
  27 O27           -5.5864     5.9891    -1.1276 O.3     
  28 C28           -4.7589     4.8249    -1.1729 C.3     
  29 O29           -3.8957     4.8602     2.4821 O.3     
  30 H30           -3.3180    -0.6130     0.0291 H       
  31 H31            1.5800     2.3437    -1.0282 H       
  32 H32            1.1390     3.0999     0.5217 H       
  33 H33            2.0504     1.5710     0.5048 H       
  34 H34            1.6456    -0.9199     1.0092 H       
  35 H35            1.1977    -1.6891    -0.5323 H       
  36 H36            2.0641    -0.1342    -0.5322 H       
  37 H37           -2.0831    -2.6018    -0.4281 H       
  38 H38           -0.3118    -2.5659    -0.5999 H       
  39 H39           -3.1153    -2.8239     1.7558 H       
  40 H40           -2.8792    -3.6543     4.0611 H       
  41 H41            1.1291    -2.7438     1.3423 H       
  42 H42            2.0799    -4.6548     3.6043 H       
  43 H43            2.4673    -2.9349     3.3596 H       
  44 H44            1.7345    -3.4731     4.8899 H       
  45 H45           -2.3792    -3.4410     6.0837 H       
  46 H46           -2.4039    -5.1165     5.4833 H       
  47 H47           -1.5610    -4.7276     7.0021 H       
  48 H48           -1.1849     3.9949     0.9333 H       
  49 H49           -1.1966     4.0028    -0.8538 H       
  50 H50           -3.2017     5.6635     0.0595 H       
  51 H51           -5.3507     3.9203     1.3527 H       
  52 H52           -6.2885     6.0540     2.1525 H       
  53 H53           -5.0048     6.9547     1.3079 H       
  54 H54           -7.1075     5.1663     0.0029 H       
  55 H55           -7.0657     6.9452    -0.0475 H       
  56 H56           -4.1424     4.8519    -2.0714 H       
  57 H57           -5.3861     3.9336    -1.1889 H       
  58 H58           -4.3831     4.8767     3.3171 H       
@<TRIPOS>BOND
   1    1    2 ar
   2    1    7 1
   3    1    6 ar
   4    2    3 ar
   5    2    8 1
   6    3    4 ar
   7    3    9 1
   8    4    5 ar
   9    4   30 1
  10    5    6 ar
  11    5   19 1
  12    6   21 1
  13    7   31 1
  14    7   32 1
  15    7   33 1
  16    8   34 1
  17    8   35 1
  18    8   36 1
  19    9   10 1
  20    9   37 1
  21    9   38 1
  22   10   11 ar
  23   10   15 ar
  24   11   12 ar
  25   11   39 1
  26   12   13 ar
  27   12   40 1
  28   13   14 ar
  29   13   17 1
  30   14   15 ar
  31   14   16 1
  32   15   41 1
  33   16   42 1
  34   16   43 1
  35   16   44 1
  36   17   18 1
  37   18   45 1
  38   18   46 1
  39   18   47 1
  40   19   20 am
  41   19   22 2
  42   20   21 1
  43   20   23 1
  44   21   48 1
  45   21   49 1
  46   23   24 1
  47   23   28 1
  48   23   50 1
  49   24   25 1
  50   24   29 1
  51   24   51 1
  52   25   26 1
  53   25   52 1
  54   25   53 1
  55   26   27 1
  56   26   54 1
  57   26   55 1
  58   27   28 1
  59   28   56 1
  60   28   57 1
  61   29   58 1

#	End of record

