#	Name: ASD01882329
#	Creating user name:	WinNT
#	Creation time:	15. 06. 2019 19:44

#	Modifying user name:	WinNT
#	Modification time:	15. 06. 2019 19:44

#	Program:	/corina/corina34_cracker 3.40 0067  02.08.2006

@<TRIPOS>MOLECULE
ASD01882329
  53   58    0    0    0
SMALL
NO_CHARGES


@<TRIPOS>ATOM
   1 C1             0.1488     1.2266    -0.1963 C.ar    
   2 C2             0.1363    -0.1624    -0.0992 C.ar    
   3 C3             1.3200    -0.8592     0.0120 C.ar    
   4 C4             2.5110    -0.1432     0.0142 C.ar    
   5 C5             2.4618     1.2322    -0.0945 C.ar    
   6 N6             1.3127     1.8681    -0.1946 N.ar    
   7 O7            -1.1162     1.7229    -0.2698 O.3     
   8 C8            -1.3085    -0.5941    -0.1574 C.3     
   9 C9            -2.0162     0.6743    -0.6721 C.3     
  10 N10           -3.5007    -2.3404     0.1123 N.pl3   
  11 C11           -2.9829    -2.0932    -1.2404 C.3     
  12 C12           -1.4940    -1.7420    -1.1404 C.3     
  13 C13           -1.8228    -0.9636     1.2274 C.3     
  14 C14           -3.3141    -1.3091     1.1421 C.3     
  15 C15           -6.0040    -5.0269     0.1497 C.2     
  16 C16           -5.3611    -3.8187    -0.1693 C.2     
  17 C17           -4.1566    -3.5304     0.4128 C.2     
  18 C18           -3.5835    -4.4482     1.3198 C.2     
  19 C19           -4.2174    -5.6009     1.6112 C.2     
  20 N20           -5.4186    -5.8978     1.0363 N.pl3   
  21 N21           -7.2921    -6.7141     0.3551 N.2     
  22 N22           -7.1469    -5.5775    -0.2301 N.2     
  23 C23           -6.2722    -6.9571     1.1354 C.2     
  24 C24           -5.9899    -2.8530    -1.1404 C.3     
  25 F25           -5.4950    -3.0960    -2.4262 F       
  26 F26           -7.3784    -3.0240    -1.1351 F       
  27 F27           -5.6800    -1.5424    -0.7614 F       
  28 C28           -6.0759    -8.1829     1.9898 C.3     
  29 C29           -6.6914    -7.9462     3.3704 C.3     
  30 C30           -6.6996    -9.1206     4.3510 C.3     
  31 C31           -5.7468    -7.9444     4.5740 C.3     
  32 H32            1.3221    -1.9359     0.0957 H       
  33 H33            3.4588    -0.6539     0.0998 H       
  34 H34            3.3824     1.7970    -0.0976 H       
  35 H35           -2.9886     0.7952    -0.1948 H       
  36 H36           -2.1176     0.6471    -1.7571 H       
  37 H37           -3.1073    -2.9890    -1.8488 H       
  38 H38           -3.5248    -1.2629    -1.6932 H       
  39 H39           -1.1244    -1.4436    -2.1214 H       
  40 H40           -0.9380    -2.6124    -0.7919 H       
  41 H41           -1.2709    -1.8256     1.6021 H       
  42 H42           -1.6832    -0.1204     1.9039 H       
  43 H43           -3.8812    -0.4177     0.8738 H       
  44 H44           -3.6574    -1.6875     2.1050 H       
  45 H45           -2.6330    -4.2256     1.7816 H       
  46 H46           -3.7705    -6.2963     2.3063 H       
  47 H47           -6.5614    -9.0367     1.5171 H       
  48 H48           -5.0101    -8.3843     2.0968 H       
  49 H49           -7.5407    -7.2634     3.3957 H       
  50 H50           -7.5541    -9.2103     5.0217 H       
  51 H51           -6.2665   -10.0619     4.0125 H       
  52 H52           -4.6870    -8.1119     4.3823 H       
  53 H53           -5.9745    -7.2603     5.3915 H       
@<TRIPOS>BOND
   1    1    2 ar
   2    1    6 ar
   3    1    7 1
   4    2    3 ar
   5    2    8 1
   6    3    4 ar
   7    3   32 1
   8    4    5 ar
   9    4   33 1
  10    5    6 ar
  11    5   34 1
  12    7    9 1
  13    8    9 1
  14    8   12 1
  15    8   13 1
  16    9   35 1
  17    9   36 1
  18   10   11 1
  19   10   14 1
  20   10   17 1
  21   11   12 1
  22   11   37 1
  23   11   38 1
  24   12   39 1
  25   12   40 1
  26   13   14 1
  27   13   41 1
  28   13   42 1
  29   14   43 1
  30   14   44 1
  31   15   16 1
  32   15   20 1
  33   15   22 2
  34   16   17 2
  35   16   24 1
  36   17   18 1
  37   18   19 2
  38   18   45 1
  39   19   20 1
  40   19   46 1
  41   20   23 1
  42   21   22 1
  43   21   23 2
  44   23   28 1
  45   24   25 1
  46   24   26 1
  47   24   27 1
  48   28   29 1
  49   28   47 1
  50   28   48 1
  51   29   30 1
  52   29   31 1
  53   29   49 1
  54   30   31 1
  55   30   50 1
  56   30   51 1
  57   31   52 1
  58   31   53 1

#	End of record

