#	Name: ASD01812062
#	Creating user name:	WinNT
#	Creation time:	15. 06. 2019 19:27

#	Modifying user name:	WinNT
#	Modification time:	15. 06. 2019 19:27

#	Program:	/corina/corina34_cracker 3.40 0067  02.08.2006

@<TRIPOS>MOLECULE
ASD01812062
  37   39    0    0    0
SMALL
NO_CHARGES


@<TRIPOS>ATOM
   1 C1            -0.0155     1.3837    -0.1248 C.ar    
   2 C2             0.0033    -0.0035    -0.1311 C.ar    
   3 C3             1.1985    -0.6918    -0.1014 C.ar    
   4 C4             2.4039     0.0085    -0.0650 C.ar    
   5 C5             2.3801     1.4131    -0.0593 C.ar    
   6 C6             1.1635     2.0949    -0.0891 C.ar    
   7 F7             1.2012    -2.0428    -0.1070 F       
   8 N8             3.6056    -0.6668    -0.0346 N.pl3   
   9 C9             4.7887    -0.0411     0.0012 C.2     
  10 C10            4.8927     1.3355     0.0103 C.2     
  11 C11            3.6619     2.1417    -0.0208 C.2     
  12 C12            3.5871    -2.1316    -0.0413 C.3     
  13 C13            3.4439    -2.6257    -1.4578 C.2     
  14 C14            4.3302    -3.4765    -1.9557 C.2     
  15 C15            4.1898    -3.9612    -3.3451 C.ar    
  16 O16            3.7001     3.3596    -0.0149 O.2     
  17 C17            6.2106     1.9850     0.0499 C.2     
  18 O18            6.2991     3.3301     0.0585 O.3     
  19 O19            7.2208     1.3091     0.0750 O.2     
  20 C20            3.1291    -3.5309    -4.1426 C.ar    
  21 N21            3.0038    -3.9627    -5.3806 N.ar    
  22 C22            3.8636    -4.8091    -5.9135 C.ar    
  23 C23            4.9419    -5.2831    -5.1880 C.ar    
  24 C24            5.1219    -4.8550    -3.8845 C.ar    
  25 H25           -0.9591     1.9085    -0.1525 H       
  26 H26           -0.9276    -0.5503    -0.1591 H       
  27 H27            1.1462     3.1747    -0.0850 H       
  28 H28            5.6917    -0.6330     0.0240 H       
  29 H29            4.5178    -2.5087     0.3827 H       
  30 H30            2.7462    -2.4871     0.5542 H       
  31 H31            2.6193    -2.2867    -2.0672 H       
  32 H32            5.1549    -3.8155    -1.3463 H       
  33 H33            7.1874     3.7114     0.0850 H       
  34 H34            2.4044    -2.8381    -3.7412 H       
  35 H35            3.7234    -5.1378    -6.9327 H       
  36 H36            5.6386    -5.9762    -5.6359 H       
  37 H37            5.9552    -5.2087    -3.2955 H       
@<TRIPOS>BOND
   1    1    2 ar
   2    1    6 ar
   3    1   25 1
   4    2    3 ar
   5    2   26 1
   6    3    4 ar
   7    3    7 1
   8    4    5 ar
   9    4    8 1
  10    5    6 ar
  11    5   11 1
  12    6   27 1
  13    8    9 1
  14    8   12 1
  15    9   10 2
  16    9   28 1
  17   10   11 1
  18   10   17 1
  19   11   16 2
  20   12   13 1
  21   12   29 1
  22   12   30 1
  23   13   14 2
  24   13   31 1
  25   14   15 1
  26   14   32 1
  27   15   20 ar
  28   15   24 ar
  29   17   18 1
  30   17   19 2
  31   18   33 1
  32   20   21 ar
  33   20   34 1
  34   21   22 ar
  35   22   23 ar
  36   22   35 1
  37   23   24 ar
  38   23   36 1
  39   24   37 1

#	End of record

