#	Name: ASD03240429
#	Creating user name:	WinNT
#	Creation time:	15. 06. 2019 20:34

#	Modifying user name:	WinNT
#	Modification time:	15. 06. 2019 20:34

#	Program:	/corina/corina34_cracker 3.40 0067  02.08.2006

@<TRIPOS>MOLECULE
ASD03240429
  35   36    0    0    0
SMALL
NO_CHARGES


@<TRIPOS>ATOM
   1 C1            -0.0157     1.3879     0.1332 C.ar    
   2 C2            -1.2227     2.0489     0.0017 C.ar    
   3 C3             1.3364     4.3115    -1.2577 C.ar    
   4 C4             0.9847     3.6229    -0.1117 C.ar    
   5 C5             1.2782     2.1491     0.0014 C.3     
   6 C6             1.0679     5.6633    -1.3618 C.ar    
   7 C7             0.4470     6.3273    -0.3189 C.ar    
   8 C8             0.0952     5.6376     0.8277 C.ar    
   9 C9             0.3643     4.2858     0.9307 C.ar    
  10 Cl10           0.1100     8.0253    -0.4488 Cl      
  11 C11           -2.4097     1.3514     0.1230 C.ar    
  12 C12           -2.3899    -0.0087     0.3759 C.ar    
  13 C13           -1.1816    -0.6697     0.5074 C.ar    
  14 C14            0.0048     0.0299     0.3912 C.ar    
  15 Cl15          -3.8804    -0.8853     0.5289 Cl      
  16 C16            2.1471     1.8953     1.2349 C.3     
  17 C17            2.0098     1.6864    -1.2322 C.2     
  18 O18            3.1171     1.2015    -1.1345 O.2     
  19 N19            1.4335     1.8116    -2.4441 N.am    
  20 C20            2.1447     1.3618    -3.6434 C.3     
  21 H21           -1.2381     3.1107    -0.1954 H       
  22 H22            1.8252     3.7940    -2.0699 H       
  23 H23            1.3431     6.2012    -2.2570 H       
  24 H24           -0.3895     6.1554     1.6421 H       
  25 H25            0.0894     3.7473     1.8256 H       
  26 H26           -3.3526     1.8680     0.0206 H       
  27 H27           -1.1655    -1.7313     0.7052 H       
  28 H28            0.9480    -0.4861     0.4934 H       
  29 H29            1.6180     2.2299     2.1271 H       
  30 H30            2.3594     0.8293     1.3167 H       
  31 H31            3.0830     2.4459     1.1396 H       
  32 H32            0.5479     2.1994    -2.5223 H       
  33 H33            2.3570     0.2958    -3.5615 H       
  34 H34            1.5257     1.5426    -4.5221 H       
  35 H35            3.0806     1.9124    -3.7387 H       
@<TRIPOS>BOND
   1    1    2 ar
   2    1    5 1
   3    1   14 ar
   4    2   11 ar
   5    2   21 1
   6    3    4 ar
   7    3    6 ar
   8    3   22 1
   9    4    5 1
  10    4    9 ar
  11    5   17 1
  12    5   16 1
  13    6    7 ar
  14    6   23 1
  15    7    8 ar
  16    7   10 1
  17    8    9 ar
  18    8   24 1
  19    9   25 1
  20   11   12 ar
  21   11   26 1
  22   12   13 ar
  23   12   15 1
  24   13   14 ar
  25   13   27 1
  26   14   28 1
  27   16   29 1
  28   16   30 1
  29   16   31 1
  30   17   18 2
  31   17   19 am
  32   19   20 1
  33   19   32 1
  34   20   33 1
  35   20   34 1
  36   20   35 1

#	End of record

