#	Name: ASD01884806
#	Creating user name:	WinNT
#	Creation time:	15. 06. 2019 19:48

#	Modifying user name:	WinNT
#	Modification time:	15. 06. 2019 19:48

#	Program:	/corina/corina34_cracker 3.40 0067  02.08.2006

@<TRIPOS>MOLECULE
ASD01884806
  51   55    0    0    0
SMALL
NO_CHARGES


@<TRIPOS>ATOM
   1 C1            -0.4406     1.2698     0.2466 C.3     
   2 C2            -0.1585    -0.2325     0.1821 C.3     
   3 H3            -1.0921    -0.7833     0.2963 H       
   4 C4             0.4741    -0.5751    -1.1656 C.3     
   5 N5             1.0418    -1.9188    -1.1936 N.am    
   6 C6             1.7239    -2.4204    -0.1355 C.2     
   7 O7             2.3647    -3.4515    -0.2154 O.2     
   8 C8             1.6464    -1.6510     1.1133 C.2     
   9 C9             2.3412    -1.7604     2.2981 C.2     
  10 C10            1.8278    -0.7252     3.1100 C.2     
  11 N11            0.9101    -0.0927     2.4204 N.2     
  12 N12            0.7651    -0.6045     1.2614 N.pl3   
  13 C13            3.3936    -2.7467     2.6443 C.2     
  14 C14            4.0950    -2.8470     3.8747 C.2     
  15 C15            4.9409    -3.9024     3.6831 C.2     
  16 O16            4.7161    -4.3470     2.4337 O.3     
  17 N17            3.8577    -3.7034     1.8770 N.2     
  18 C18            5.9119    -4.4474     4.6561 C.ar    
  19 C19            6.7997    -3.6018     5.3218 C.ar    
  20 N20            7.6643    -4.0870     6.1888 N.ar    
  21 C21            7.7281    -5.3759     6.4620 C.ar    
  22 C22            6.8826    -6.2797     5.8438 C.ar    
  23 C23            5.9519    -5.8198     4.9290 C.ar    
  24 C24            5.0097    -6.7727     4.2396 C.3     
  25 C25            0.8790    -2.7061    -2.3375 C.ar    
  26 C26            0.0876    -3.8464    -2.2905 C.ar    
  27 C27           -0.0720    -4.6223    -3.4222 C.ar    
  28 C28            0.5553    -4.2654    -4.6013 C.ar    
  29 C29            1.3450    -3.1296    -4.6521 C.ar    
  30 Cl30           2.1304    -2.6849    -6.1350 Cl      
  31 C31            1.5038    -2.3462    -3.5247 C.ar    
  32 C32            0.3796    -5.1149    -5.8336 C.3     
  33 F33           -0.4540    -6.1988    -5.5378 F       
  34 F34           -0.1970    -4.3470    -6.8509 F       
  35 F35            1.6268    -5.5874    -6.2559 F       
  36 H36            0.4933     1.8202     0.1324 H       
  37 H37           -1.1253     1.5457    -0.5554 H       
  38 H38           -0.8909     1.5140     1.2088 H       
  39 H39           -0.2874    -0.4982    -1.9418 H       
  40 H40            1.2640     0.1455    -1.3773 H       
  41 H41            2.1362    -0.4958     4.1193 H       
  42 H42            3.9857    -2.2323     4.7559 H       
  43 H43            6.7780    -2.5402     5.1242 H       
  44 H44            8.4525    -5.7315     7.1798 H       
  45 H45            6.9453    -7.3325     6.0761 H       
  46 H46            5.4669    -7.1327     3.3180 H       
  47 H47            4.8023    -7.6175     4.8965 H       
  48 H48            4.0782    -6.2571     4.0058 H       
  49 H49           -0.4024    -4.1266    -1.3698 H       
  50 H50           -0.6874    -5.5090    -3.3857 H       
  51 H51            2.1166    -1.4578    -3.5655 H       
@<TRIPOS>BOND
   1    1    2 1
   2    1   36 1
   3    1   37 1
   4    1   38 1
   5    2    3 1
   6    2   12 1
   7    2    4 1
   8    4    5 1
   9    4   39 1
  10    4   40 1
  11    5    6 am
  12    5   25 1
  13    6    7 2
  14    6    8 1
  15    8   12 1
  16    8    9 2
  17    9   10 1
  18    9   13 1
  19   10   11 2
  20   10   41 1
  21   11   12 1
  22   13   17 2
  23   13   14 1
  24   14   15 2
  25   14   42 1
  26   15   16 1
  27   15   18 1
  28   16   17 1
  29   18   23 ar
  30   18   19 ar
  31   19   20 ar
  32   19   43 1
  33   20   21 ar
  34   21   22 ar
  35   21   44 1
  36   22   23 ar
  37   22   45 1
  38   23   24 1
  39   24   46 1
  40   24   47 1
  41   24   48 1
  42   25   31 ar
  43   25   26 ar
  44   26   27 ar
  45   26   49 1
  46   27   28 ar
  47   27   50 1
  48   28   29 ar
  49   28   32 1
  50   29   30 1
  51   29   31 ar
  52   31   51 1
  53   32   33 1
  54   32   34 1
  55   32   35 1

#	End of record

