#	Name: ASD02039175
#	Creating user name:	WinNT
#	Creation time:	15. 06. 2019 20:17

#	Modifying user name:	WinNT
#	Modification time:	15. 06. 2019 20:17

#	Program:	/corina/corina34_cracker 3.40 0067  02.08.2006

@<TRIPOS>MOLECULE
ASD02039175
  39   42    0    0    0
SMALL
NO_CHARGES


@<TRIPOS>ATOM
   1 N1            -0.0010     1.2804     0.2557 N.2     
   2 C2             0.0074    -0.0199     0.1291 C.2     
   3 N3             1.2988    -0.4141     0.1378 N.2     
   4 C4             2.0014     0.6839     0.2707 C.2     
   5 O5             1.1345     1.6990     0.3380 O.3     
   6 C6             3.5037     0.7835     0.3357 C.3     
   7 O7             4.0279     0.9454    -0.9837 O.3     
   8 C8             5.3781     1.0517    -1.1027 C.ar    
   9 N9            -1.1050    -0.8434     0.0085 N.pl3   
  10 C10           -2.3906    -0.3047     0.1292 C.ar    
  11 C11           -3.4563    -0.8917    -0.5409 C.ar    
  12 C12           -4.7249    -0.3590    -0.4204 C.ar    
  13 C13           -4.9353     0.7599     0.3676 C.ar    
  14 C14           -3.8740     1.3474     1.0372 C.ar    
  15 C15           -2.6038     0.8139     0.9237 C.ar    
  16 C16            6.1804     1.0003     0.0350 C.ar    
  17 C17            7.5497     1.1063    -0.0664 C.ar    
  18 C18            8.1438     1.2660    -1.3141 C.ar    
  19 C19            7.3371     1.3179    -2.4662 C.ar    
  20 C20            5.9476     1.2043    -2.3507 C.ar    
  21 F21           -6.1769     1.2797     0.4833 F       
  22 N22            9.5142     1.3750    -1.4365 N.am    
  23 C23           10.0908     1.5303    -2.6410 C.2     
  24 C24            9.3266     1.5884    -3.8260 C.2     
  25 C25            7.9755     1.4873    -3.7729 C.2     
  26 O26           11.3042     1.6237    -2.7113 O.2     
  27 Cl27          -4.1408     2.7502     2.0245 Cl      
  28 H28            3.7848     1.6415     0.9463 H       
  29 H29            3.9092    -0.1261     0.7787 H       
  30 H30           -0.9904    -1.7919    -0.1594 H       
  31 H31           -3.2930    -1.7640    -1.1563 H       
  32 H32           -5.5534    -0.8155    -0.9415 H       
  33 H33           -1.7767     1.2715     1.4459 H       
  34 H34            5.7240     0.8765     1.0060 H       
  35 H35            8.1620     1.0659     0.8223 H       
  36 H36            5.3240     1.2436    -3.2316 H       
  37 H37           10.0694     1.3395    -0.6419 H       
  38 H38            9.8198     1.7138    -4.7786 H       
  39 H39            7.3831     1.5304    -4.6749 H       
@<TRIPOS>BOND
   1    1    2 2
   2    1    5 1
   3    2    3 1
   4    2    9 1
   5    3    4 2
   6    4    5 1
   7    4    6 1
   8    6    7 1
   9    6   28 1
  10    6   29 1
  11    7    8 1
  12    8   16 ar
  13    8   20 ar
  14    9   10 1
  15    9   30 1
  16   10   11 ar
  17   10   15 ar
  18   11   12 ar
  19   11   31 1
  20   12   13 ar
  21   12   32 1
  22   13   14 ar
  23   13   21 1
  24   14   15 ar
  25   14   27 1
  26   15   33 1
  27   16   17 ar
  28   16   34 1
  29   17   18 ar
  30   17   35 1
  31   18   19 ar
  32   18   22 1
  33   19   20 ar
  34   19   25 1
  35   20   36 1
  36   22   23 am
  37   22   37 1
  38   23   24 1
  39   23   26 2
  40   24   25 2
  41   24   38 1
  42   25   39 1

#	End of record

