#	Name: ASD03430111
#	Creating user name:	WinNT
#	Creation time:	15. 06. 2019 20:40

#	Modifying user name:	WinNT
#	Modification time:	15. 06. 2019 20:40

#	Program:	/corina/corina34_cracker 3.40 0067  02.08.2006

@<TRIPOS>MOLECULE
ASD03430111
  55   60    0    0    0
SMALL
NO_CHARGES


@<TRIPOS>ATOM
   1 C1             0.0469     1.3751    -0.0572 C.ar    
   2 C2             0.0442    -0.0112    -0.0413 C.ar    
   3 C3             1.2345    -0.7078    -0.0384 C.ar    
   4 C4             2.4508    -0.0315    -0.0414 C.ar    
   5 C5             2.4497     1.3596    -0.0624 C.ar    
   6 C6             1.2560     2.0611    -0.0689 C.ar    
   7 O7             3.5002    -0.9020    -0.0082 O.3     
   8 C8             1.5604    -2.1771    -0.0446 C.3     
   9 C9             3.0488    -2.2065    -0.4193 C.3     
  10 C10            0.4055    -3.8573     1.0330 C.ar    
  11 C11            1.3042    -2.8247     1.2836 C.ar    
  12 C12            0.7234    -2.9428    -1.0286 C.2     
  13 N13            0.0863    -3.9008    -0.3263 N.am    
  14 O14            0.6374    -2.7391    -2.2212 O.2     
  15 C15            1.7629    -2.5880     2.5666 C.ar    
  16 C16            1.3263    -3.3868     3.6174 C.ar    
  17 C17            0.4352    -4.4140     3.3739 C.ar    
  18 C18           -0.0243    -4.6509     2.0942 C.ar    
  19 N19            2.6657    -1.5463     2.8068 N.am    
  20 O20           -1.1372     2.0472    -0.0670 O.3     
  21 C21           -1.0933     3.4333     0.2893 C.3     
  22 C22            0.0731     4.0856    -0.4652 C.3     
  23 O23            1.2825     3.4224    -0.0829 O.3     
  24 C24           -0.8336    -4.8745    -0.9195 C.3     
  25 C25            3.4959    -1.6050     3.8668 C.2     
  26 C26            4.5293    -0.5281     4.0752 C.3     
  27 O27            3.4115    -2.5247     4.6530 O.2     
  28 C28            5.3467    -0.8206     5.3456 C.3     
  29 C29            6.8144    -0.9803     4.8981 C.3     
  30 C30            6.8915    -0.1995     3.5626 C.3     
  31 C31            5.5287    -0.5202     2.9001 C.3     
  32 H32           -0.8932    -0.5475    -0.0307 H       
  33 H33            3.3869     1.8963    -0.0734 H       
  34 H34            3.1749    -2.3389    -1.4938 H       
  35 H35            3.5713    -2.9883     0.1320 H       
  36 H36            1.6827    -3.2051     4.6206 H       
  37 H37            0.0958    -5.0351     4.1897 H       
  38 H38           -0.7212    -5.4561     1.9144 H       
  39 H39            2.6939    -0.7818     2.2104 H       
  40 H40           -2.0293     3.9153     0.0071 H       
  41 H41           -0.9374     3.5321     1.3636 H       
  42 H42           -0.0790     3.9799    -1.5394 H       
  43 H43            0.1345     5.1422    -0.2044 H       
  44 H44           -1.8472    -4.4739    -0.9027 H       
  45 H45           -0.5382    -5.0725    -1.9499 H       
  46 H46           -0.7998    -5.8017    -0.3473 H       
  47 H47            4.0433     0.4440     4.1595 H       
  48 H48            5.2582     0.0098     6.0460 H       
  49 H49            4.9961    -1.7415     5.8114 H       
  50 H50            7.4877    -0.5428     5.6352 H       
  51 H51            7.0525    -2.0321     4.7394 H       
  52 H52            6.9897     0.8705     3.7459 H       
  53 H53            7.7149    -0.5645     2.9487 H       
  54 H54            5.5592    -1.4977     2.4187 H       
  55 H55            5.2637     0.2531     2.1790 H       
@<TRIPOS>BOND
   1    1    2 ar
   2    1    6 ar
   3    1   20 1
   4    2    3 ar
   5    2   32 1
   6    3    4 ar
   7    3    8 1
   8    4    5 ar
   9    4    7 1
  10    5    6 ar
  11    5   33 1
  12    6   23 1
  13    7    9 1
  14    8    9 1
  15    8   11 1
  16    8   12 1
  17    9   34 1
  18    9   35 1
  19   10   11 ar
  20   10   13 1
  21   10   18 ar
  22   11   15 ar
  23   12   13 am
  24   12   14 2
  25   13   24 1
  26   15   16 ar
  27   15   19 1
  28   16   17 ar
  29   16   36 1
  30   17   18 ar
  31   17   37 1
  32   18   38 1
  33   19   25 am
  34   19   39 1
  35   20   21 1
  36   21   22 1
  37   21   40 1
  38   21   41 1
  39   22   23 1
  40   22   42 1
  41   22   43 1
  42   24   44 1
  43   24   45 1
  44   24   46 1
  45   25   26 1
  46   25   27 2
  47   26   28 1
  48   26   31 1
  49   26   47 1
  50   28   29 1
  51   28   48 1
  52   28   49 1
  53   29   30 1
  54   29   50 1
  55   29   51 1
  56   30   31 1
  57   30   52 1
  58   30   53 1
  59   31   54 1
  60   31   55 1

#	End of record

