#	Name: ASD02030001
#	Creating user name:	WinNT
#	Creation time:	15. 06. 2019 20:14

#	Modifying user name:	WinNT
#	Modification time:	15. 06. 2019 20:14

#	Program:	/corina/corina34_cracker 3.40 0067  02.08.2006

@<TRIPOS>MOLECULE
ASD02030001
  61   62    0    0    0
SMALL
NO_CHARGES


@<TRIPOS>ATOM
   1 C1            -0.2923     2.1379     0.2528 C.ar    
   2 C2            -0.2319     0.7557     0.2027 C.ar    
   3 C3            -1.3991     0.0141     0.1631 C.ar    
   4 C4            -2.6245     0.6530     0.1736 C.ar    
   5 C5            -2.6849     2.0335     0.2231 C.ar    
   6 C6            -1.5199     2.7757     0.2689 C.ar    
   7 Cl7            1.1714     3.0701     0.3024 Cl      
   8 C8            -3.8956    -0.1553     0.1305 C.3     
   9 C9            -4.3411    -0.4817     1.5573 C.3     
  10 N10           -5.5802    -1.2696     1.5153 N.3     
  11 C11           -5.9107    -1.8023     2.8438 C.3     
  12 C12           -4.9939    -2.9853     3.1615 C.3     
  13 C13           -5.2540    -3.4625     4.5917 C.3     
  14 O14           -4.3193    -4.4896     4.9286 O.3     
  15 C15           -4.4142    -5.0263     6.1746 C.ar    
  16 C16           -3.5380    -6.0274     6.5667 C.ar    
  17 C17           -3.6333    -6.5726     7.8320 C.ar    
  18 C18           -4.6069    -6.1183     8.7118 C.ar    
  19 C19           -5.4837    -5.1160     8.3185 C.ar    
  20 C20           -5.3836    -4.5682     7.0546 C.ar    
  21 N21           -4.7045    -6.6705     9.9939 N.am    
  22 S22           -5.9280    -7.7285    10.3487 S.o2    
  23 C23           -5.6241    -9.1517     9.2658 C.3     
  24 O24           -5.7049    -8.0793    11.7076 O.2     
  25 O25           -7.1089    -7.0442     9.9532 O.2     
  26 Cl26           1.3077    -0.0463     0.1890 Cl      
  27 C27           -6.6914    -0.4748     0.9755 C.3     
  28 C28           -7.8390    -1.4059     0.5791 C.3     
  29 C29           -8.9425    -0.5939    -0.1020 C.3     
  30 C30          -10.0901    -1.5249    -0.4984 C.3     
  31 O31           -5.2586    -4.0518     2.2480 O.3     
  32 H32           -1.3526    -1.0642     0.1237 H       
  33 H33           -3.6430     2.5318     0.2309 H       
  34 H34           -1.5678     3.8539     0.3076 H       
  35 H35           -4.6746     0.4191    -0.3709 H       
  36 H36           -3.7187    -1.0818    -0.4158 H       
  37 H37           -3.5621    -1.0561     2.0587 H       
  38 H38           -4.5180     0.4448     2.1036 H       
  39 H39           -5.7708    -1.0229     3.5929 H       
  40 H40           -6.9489    -2.1342     2.8543 H       
  41 H41           -3.9535    -2.6747     3.0657 H       
  42 H42           -5.1383    -2.6257     5.2806 H       
  43 H43           -6.2680    -3.8557     4.6648 H       
  44 H44           -2.7811    -6.3809     5.8822 H       
  45 H45           -2.9512    -7.3524     8.1370 H       
  46 H46           -6.2412    -4.7621     9.0021 H       
  47 H47           -6.0652    -3.7884     6.7486 H       
  48 H48           -4.0555    -6.4336    10.6748 H       
  49 H49           -4.6836    -9.6266     9.5452 H       
  50 H50           -6.4383    -9.8687     9.3708 H       
  51 H51           -5.5676    -8.8151     8.2306 H       
  52 H52           -7.0383     0.2269     1.7340 H       
  53 H53           -6.3515     0.0765     0.0988 H       
  54 H54           -7.4692    -2.1656    -0.1095 H       
  55 H55           -8.2402    -1.8879     1.4706 H       
  56 H56           -9.3123     0.1659     0.5866 H       
  57 H57           -8.5412    -0.1118    -0.9935 H       
  58 H58          -10.8762    -0.9464    -0.9837 H       
  59 H59           -9.7203    -2.2846    -1.1870 H       
  60 H60          -10.4913    -2.0070     0.3931 H       
  61 H61           -6.1849    -4.3285     2.2241 H       
@<TRIPOS>BOND
   1    1    2 ar
   2    1    7 1
   3    1    6 ar
   4    2    3 ar
   5    2   26 1
   6    3    4 ar
   7    3   32 1
   8    4    5 ar
   9    4    8 1
  10    5    6 ar
  11    5   33 1
  12    6   34 1
  13    8    9 1
  14    8   35 1
  15    8   36 1
  16    9   10 1
  17    9   37 1
  18    9   38 1
  19   10   11 1
  20   10   27 1
  21   11   12 1
  22   11   39 1
  23   11   40 1
  24   12   13 1
  25   12   31 1
  26   12   41 1
  27   13   14 1
  28   13   42 1
  29   13   43 1
  30   14   15 1
  31   15   16 ar
  32   15   20 ar
  33   16   17 ar
  34   16   44 1
  35   17   18 ar
  36   17   45 1
  37   18   19 ar
  38   18   21 1
  39   19   20 ar
  40   19   46 1
  41   20   47 1
  42   21   22 am
  43   21   48 1
  44   22   23 1
  45   22   24 2
  46   22   25 2
  47   23   49 1
  48   23   50 1
  49   23   51 1
  50   27   28 1
  51   27   52 1
  52   27   53 1
  53   28   29 1
  54   28   54 1
  55   28   55 1
  56   29   30 1
  57   29   56 1
  58   29   57 1
  59   30   58 1
  60   30   59 1
  61   30   60 1
  62   31   61 1

#	End of record

