#	Name: ASD01320146
#	Creating user name:	WinNT
#	Creation time:	15. 06. 2019 19:16

#	Modifying user name:	WinNT
#	Modification time:	15. 06. 2019 19:16

#	Program:	/corina/corina34_cracker 3.40 0067  02.08.2006

@<TRIPOS>MOLECULE
ASD01320146
  36   37    0    0    0
SMALL
NO_CHARGES


@<TRIPOS>ATOM
   1 C1            -0.0129     1.1415    -0.1424 C.3     
   2 O2             0.1012    -0.2811    -0.2142 O.3     
   3 C3             1.3838     1.7626    -0.0777 C.3     
   4 O4             2.0790     1.5003    -1.2984 O.3     
   5 C5             1.2611     3.2753     0.1231 C.3     
   6 O6             0.6175     3.5407     1.3711 O.3     
   7 C7             2.6609     3.8973     0.1266 C.3     
   8 O8             3.4095     3.3836     1.2301 O.3     
   9 C9             3.3694     3.5404    -1.1838 C.3     
  10 O10            4.7026     4.0543    -1.1611 O.3     
  11 C11            3.4107     2.0174    -1.3341 C.3     
  12 N12            4.1891     1.4390    -0.2360 N.am    
  13 C13            3.7747     0.2992     0.3464 C.2     
  14 O14            2.7575    -0.2390    -0.0462 O.2     
  15 N15            4.4704    -0.2540     1.3571 N.am    
  16 C16            5.6006     0.3301     1.8038 C.2     
  17 O17            6.2310    -0.1699     2.7179 O.2     
  18 C18            6.0480     1.5299     1.1998 C.2     
  19 C19            5.3337     2.0601     0.1840 C.2     
  20 C20            7.3079     2.2030     1.6802 C.3     
  21 H21           -0.5335     1.5093    -1.0266 H       
  22 H22           -0.5745     1.4164     0.7504 H       
  23 H23           -0.7477    -0.7421    -0.2579 H       
  24 H24            1.9363     1.3287     0.7557 H       
  25 H25            0.6730     3.7040    -0.6884 H       
  26 H26            0.5063     4.4817     1.5640 H       
  27 H27            2.5784     4.9806     0.2147 H       
  28 H28            3.0142     3.5675     2.0932 H       
  29 H29            2.8255     3.9755    -2.0222 H       
  30 H30            4.7522     5.0151    -1.0629 H       
  31 H31            3.8758     1.7585    -2.2853 H       
  32 H32            4.1574    -1.0760     1.7660 H       
  33 H33            5.6620     2.9723    -0.2919 H       
  34 H34            7.7399     1.6248     2.4969 H       
  35 H35            8.0230     2.2633     0.8597 H       
  36 H36            7.0720     3.2076     2.0312 H       
@<TRIPOS>BOND
   1    1    2 1
   2    1    3 1
   3    1   21 1
   4    1   22 1
   5    2   23 1
   6    3    4 1
   7    3    5 1
   8    3   24 1
   9    4   11 1
  10    5    6 1
  11    5    7 1
  12    5   25 1
  13    6   26 1
  14    7    8 1
  15    7    9 1
  16    7   27 1
  17    8   28 1
  18    9   10 1
  19    9   11 1
  20    9   29 1
  21   10   30 1
  22   11   12 1
  23   11   31 1
  24   12   13 am
  25   12   19 1
  26   13   14 2
  27   13   15 am
  28   15   16 am
  29   15   32 1
  30   16   17 2
  31   16   18 1
  32   18   19 2
  33   18   20 1
  34   19   33 1
  35   20   34 1
  36   20   35 1
  37   20   36 1

#	End of record

