#	Name: ASD01028783
#	Creating user name:	WinNT
#	Creation time:	15. 06. 2019 18:58

#	Modifying user name:	WinNT
#	Modification time:	15. 06. 2019 18:58

#	Program:	/corina/corina34_cracker 3.40 0067  02.08.2006

@<TRIPOS>MOLECULE
ASD01028783
  29   31    0    0    0
SMALL
NO_CHARGES


@<TRIPOS>ATOM
   1 N1            -0.0157     1.3052     0.0092 N.ar    
   2 C2             0.0021    -0.0041     0.0020 C.ar    
   3 C3             1.2070    -0.7198    -0.0133 C.ar    
   4 C4             2.4081    -0.0372    -0.0211 C.ar    
   5 C5             2.3713     1.3695    -0.0132 C.ar    
   6 N6             3.4974     2.0884    -0.0204 N.ar    
   7 C7             3.4692     3.4000    -0.0135 C.ar    
   8 C8             2.2688     4.1041     0.0020 C.ar    
   9 C9             1.0797     3.4288     0.0101 C.ar    
  10 C10            1.1126     2.0195     0.0023 C.ar    
  11 O11            0.6219    -4.6630     1.0127 O.3     
  12 C12           -0.1530    -4.1576    -0.0779 C.3     
  13 C13           -0.1838    -2.6284    -0.0095 C.3     
  14 N14            1.1936    -2.1148    -0.0203 N.3     
  15 C15            1.9598    -2.6546     1.1123 C.3     
  16 C16            1.9691    -4.1835     1.0327 C.3     
  17 Cl17          -0.4306     4.2845     0.0295 Cl      
  18 H18           -0.9329    -0.5447     0.0084 H       
  19 H19            3.3485    -0.5681    -0.0326 H       
  20 H20            4.4005     3.9469    -0.0198 H       
  21 H21            2.2764     5.1841     0.0080 H       
  22 H22            0.2968    -4.4708    -1.0200 H       
  23 H23           -1.1696    -4.5454    -0.0126 H       
  24 H24           -0.7252    -2.2364    -0.8705 H       
  25 H25           -0.6819    -2.3151     0.9080 H       
  26 H26            2.9832    -2.2818     1.0702 H       
  27 H27            1.4960    -2.3417     2.0477 H       
  28 H28            2.4873    -4.5901     1.9011 H       
  29 H29            2.4807    -4.4975     0.1228 H       
@<TRIPOS>BOND
   1    1    2 ar
   2    1   10 ar
   3    2    3 ar
   4    2   18 1
   5    3    4 ar
   6    3   14 1
   7    4    5 ar
   8    4   19 1
   9    5    6 ar
  10    5   10 ar
  11    6    7 ar
  12    7    8 ar
  13    7   20 1
  14    8    9 ar
  15    8   21 1
  16    9   10 ar
  17    9   17 1
  18   11   12 1
  19   11   16 1
  20   12   13 1
  21   12   22 1
  22   12   23 1
  23   13   14 1
  24   13   24 1
  25   13   25 1
  26   14   15 1
  27   15   16 1
  28   15   26 1
  29   15   27 1
  30   16   28 1
  31   16   29 1

#	End of record

