#	Name: ASD01916823
#	Creating user name:	WinNT
#	Creation time:	15. 06. 2019 20:08

#	Modifying user name:	WinNT
#	Modification time:	15. 06. 2019 20:08

#	Program:	/corina/corina34_cracker 3.40 0067  02.08.2006

@<TRIPOS>MOLECULE
ASD01916823
  60   63    0    0    0
SMALL
NO_CHARGES


@<TRIPOS>ATOM
   1 C1            -0.2978     1.9687    -0.4267 C.ar    
   2 C2            -0.4072     0.5881    -0.4565 C.ar    
   3 C3             0.7293    -0.2025    -0.3968 C.ar    
   4 C4             1.9753     0.3829    -0.3073 C.ar    
   5 C5             2.0900     1.7715    -0.2775 C.ar    
   6 C6             0.9447     2.5626    -0.3377 C.ar    
   7 C7             3.4281     2.4057    -0.1808 C.2     
   8 N8             3.6669     3.7235    -0.1440 N.2     
   9 N9             4.5756     1.7673    -0.1113 N.2     
  10 N10            5.5788     2.7470    -0.0331 N.pl3   
  11 C11            4.9532     3.9376    -0.0575 C.2     
  12 C12            5.6213     5.2870     0.0033 C.3     
  13 C13            7.0226     2.5174     0.0609 C.3     
  14 C14            7.5910     2.3211    -1.3209 C.2     
  15 O15            6.8794     2.4542    -2.2939 O.2     
  16 N16            8.8902     1.9975    -1.4754 N.am    
  17 C17            9.4652     1.8014    -2.8149 C.3     
  18 C18           10.7338     2.6533    -2.9296 C.3     
  19 N19           11.6354     2.3360    -1.8141 N.3     
  20 C20           11.0272     2.6819    -0.5224 C.3     
  21 C21            9.7721     1.8372    -0.3093 C.3     
  22 C22           12.8585     2.9646    -1.9707 C.ar    
  23 N23           13.7979     2.7892    -1.0530 N.ar    
  24 N24           13.0639     3.7231    -3.0374 N.ar    
  25 C25           14.9778     3.3751    -1.1727 C.ar    
  26 C26           15.2245     4.1798    -2.2739 C.ar    
  27 C27           14.2214     4.3375    -3.2174 C.ar    
  28 C28            5.6999     5.7520     1.4588 C.3     
  29 F29           -1.6255     0.0107    -0.5436 F       
  30 C30            6.5022     7.0525     1.5361 C.3     
  31 C31            4.2870     5.9917     1.9947 C.3     
  32 C32            0.6040    -1.7039    -0.4292 C.3     
  33 H33           -1.1858     2.5813    -0.4776 H       
  34 H34            2.8605    -0.2340    -0.2601 H       
  35 H35            1.0292     3.6390    -0.3152 H       
  36 H36            6.6275     5.2132    -0.4094 H       
  37 H37            5.0424     6.0056    -0.5769 H       
  38 H38            7.4977     3.3788     0.5302 H       
  39 H39            7.2106     1.6270     0.6610 H       
  40 H40            9.7162     0.7500    -2.9553 H       
  41 H41            8.7452     2.1130    -3.5716 H       
  42 H42           11.2332     2.4367    -3.8739 H       
  43 H43           10.4672     3.7096    -2.8926 H       
  44 H44           11.7395     2.4860     0.2791 H       
  45 H45           10.7565     3.7378    -0.5190 H       
  46 H46            9.2554     2.1698     0.5910 H       
  47 H47           10.0496     0.7879    -0.2091 H       
  48 H48           15.7395     3.2286    -0.4212 H       
  49 H49           16.1790     4.6700    -2.3963 H       
  50 H50           14.3817     4.9574    -4.0871 H       
  51 H51            6.1910     4.9860     2.0590 H       
  52 H52            6.0111     7.8186     0.9360 H       
  53 H53            6.5582     7.3838     2.5731 H       
  54 H54            7.5088     6.8818     1.1544 H       
  55 H55            3.7571     6.6738     1.3297 H       
  56 H56            3.7516     5.0436     2.0444 H       
  57 H57            4.3458     6.4286     2.9915 H       
  58 H58            0.6392    -2.0492    -1.4624 H       
  59 H59            1.4261    -2.1493     0.1310 H       
  60 H60           -0.3440    -1.9991     0.0205 H       
@<TRIPOS>BOND
   1    1    2 ar
   2    1    6 ar
   3    1   33 1
   4    2    3 ar
   5    2   29 1
   6    3    4 ar
   7    3   32 1
   8    4    5 ar
   9    4   34 1
  10    5    6 ar
  11    5    7 1
  12    6   35 1
  13    7    8 1
  14    7    9 2
  15    8   11 2
  16    9   10 1
  17   10   11 1
  18   10   13 1
  19   11   12 1
  20   12   28 1
  21   12   36 1
  22   12   37 1
  23   13   14 1
  24   13   38 1
  25   13   39 1
  26   14   15 2
  27   14   16 am
  28   16   17 1
  29   16   21 1
  30   17   18 1
  31   17   40 1
  32   17   41 1
  33   18   19 1
  34   18   42 1
  35   18   43 1
  36   19   20 1
  37   19   22 1
  38   20   21 1
  39   20   44 1
  40   20   45 1
  41   21   46 1
  42   21   47 1
  43   22   23 ar
  44   22   24 ar
  45   23   25 ar
  46   24   27 ar
  47   25   26 ar
  48   25   48 1
  49   26   27 ar
  50   26   49 1
  51   27   50 1
  52   28   30 1
  53   28   31 1
  54   28   51 1
  55   30   52 1
  56   30   53 1
  57   30   54 1
  58   31   55 1
  59   31   56 1
  60   31   57 1
  61   32   58 1
  62   32   59 1
  63   32   60 1

#	End of record

