#	Name: ASD01914843
#	Creating user name:	WinNT
#	Creation time:	15. 06. 2019 20:04

#	Modifying user name:	WinNT
#	Modification time:	15. 06. 2019 20:04

#	Program:	/corina/corina34_cracker 3.40 0067  02.08.2006

@<TRIPOS>MOLECULE
ASD01914843
  45   47    0    0    0
SMALL
NO_CHARGES


@<TRIPOS>ATOM
   1 C1             0.6157     1.2679    -0.9626 C.ar    
   2 C2             0.6070    -0.0901    -0.6257 C.ar    
   3 C3             1.6400    -0.9134    -1.1070 C.ar    
   4 N4             2.6006    -0.4076    -1.8641 N.ar    
   5 C5             2.6264     0.8697    -2.1926 C.ar    
   6 C6             1.6450     1.7416    -1.7578 C.ar    
   7 N7             1.6527    -2.2599    -0.7870 N.3     
   8 C8             0.3992    -2.9088    -1.1916 C.3     
   9 C9             2.8022    -2.9388    -1.4076 C.3     
  10 C10            2.9511    -4.3233    -0.7719 C.3     
  11 C11            1.6220    -5.0259    -0.7706 C.2     
  12 C12            0.4809    -4.3896    -0.9555 C.2     
  13 C13            1.5925    -6.4804    -0.5550 C.2     
  14 N14            0.4333    -7.1566    -0.6791 N.am    
  15 O15            2.6142    -7.0730    -0.2647 O.2     
  16 C16            0.4335    -8.5551    -0.6560 C.ar    
  17 C17           -0.6026    -9.2610    -1.2536 C.ar    
  18 C18           -0.5998   -10.6418    -1.2292 C.ar    
  19 C19            0.4338   -11.3220    -0.6098 C.ar    
  20 C20            1.4673   -10.6214    -0.0137 C.ar    
  21 C21            1.4729    -9.2406    -0.0404 C.ar    
  22 Br22           0.4335   -13.2127    -0.5774 Br      
  23 C23            3.9610    -5.1460    -1.5746 C.3     
  24 C24            5.3636    -4.5689    -1.3735 C.3     
  25 C25           -0.4345    -0.6313     0.1946 C.1     
  26 N26           -1.2608    -1.0606     0.8453 N.1     
  27 H27           -0.1639     1.9293    -0.6146 H       
  28 H28            3.4287     1.2414    -2.8126 H       
  29 H29            1.6815     2.7845    -2.0362 H       
  30 H30           -0.4251    -2.4955    -0.6105 H       
  31 H31            0.2211    -2.7213    -2.2505 H       
  32 H32            2.6304    -3.0443    -2.4788 H       
  33 H33            3.7077    -2.3573    -1.2348 H       
  34 H34            3.3054    -4.2155     0.2532 H       
  35 H35           -0.4361    -4.9597    -0.9358 H       
  36 H36           -0.4012    -6.6734    -0.7845 H       
  37 H37           -1.4100    -8.7306    -1.7366 H       
  38 H38           -1.4052   -11.1913    -1.6937 H       
  39 H39            2.2728   -11.1548     0.4691 H       
  40 H40            2.2798    -8.6942     0.4251 H       
  41 H41            3.9411    -6.1805    -1.2319 H       
  42 H42            3.7010    -5.1087    -2.6325 H       
  43 H43            5.6466    -4.6589    -0.3247 H       
  44 H44            6.0746    -5.1188    -1.9902 H       
  45 H45            5.3689    -3.5179    -1.6623 H       
@<TRIPOS>BOND
   1    1    2 ar
   2    1    6 ar
   3    1   27 1
   4    2    3 ar
   5    2   25 1
   6    3    4 ar
   7    3    7 1
   8    4    5 ar
   9    5    6 ar
  10    5   28 1
  11    6   29 1
  12    7    8 1
  13    7    9 1
  14    8   12 1
  15    8   30 1
  16    8   31 1
  17    9   10 1
  18    9   32 1
  19    9   33 1
  20   10   11 1
  21   10   23 1
  22   10   34 1
  23   11   12 2
  24   11   13 1
  25   12   35 1
  26   13   14 am
  27   13   15 2
  28   14   16 1
  29   14   36 1
  30   16   17 ar
  31   16   21 ar
  32   17   18 ar
  33   17   37 1
  34   18   19 ar
  35   18   38 1
  36   19   20 ar
  37   19   22 1
  38   20   21 ar
  39   20   39 1
  40   21   40 1
  41   23   24 1
  42   23   41 1
  43   23   42 1
  44   24   43 1
  45   24   44 1
  46   24   45 1
  47   25   26 3

#	End of record

