#	Name: ASD08150413
#	Creating user name:	WinNT
#	Creation time:	15. 06. 2019 21:16

#	Modifying user name:	WinNT
#	Modification time:	15. 06. 2019 21:16

#	Program:	/corina/corina34_cracker 3.40 0067  02.08.2006

@<TRIPOS>MOLECULE
ASD08150413
  43   47    0    0    0
SMALL
NO_CHARGES


@<TRIPOS>ATOM
   1 N1             0.8930     2.9266    -1.6556 N.am    
   2 C2             1.3277     2.3095    -2.7714 C.2     
   3 C3             2.5374     1.5856    -2.7734 C.2     
   4 C4             3.2848     1.5011    -1.6435 C.2     
   5 C5             2.8306     2.1495    -0.4678 C.ar    
   6 C6             3.5677     2.0937     0.7305 C.ar    
   7 N7             3.1464     2.6928     1.8135 N.ar    
   8 C8             2.0002     3.3893     1.8486 C.ar    
   9 C9             1.1943     3.4992     0.6887 C.ar    
  10 C10            1.6217     2.8615    -0.4996 C.ar    
  11 C11            0.0010     4.2265     0.7360 C.ar    
  12 C12           -0.3812     4.8338     1.9210 C.ar    
  13 C13            0.4214     4.7207     3.0648 C.ar    
  14 C14            1.5849     4.0172     3.0344 C.ar    
  15 O15            0.6659     2.3775    -3.7931 O.2     
  16 C16           -1.6453     5.6077     1.9798 C.ar    
  17 C17           -0.3095     3.6440    -1.6808 C.ar    
  18 C18           -0.3025     5.0025    -1.9677 C.ar    
  19 C19           -1.4905     5.7086    -1.9919 C.ar    
  20 C20           -2.6873     5.0611    -1.7296 C.ar    
  21 C21           -2.6954     3.7063    -1.4434 C.ar    
  22 C22           -1.5111     2.9963    -1.4244 C.ar    
  23 Cl23          -1.4832     7.4071    -2.3505 Cl      
  24 C24           -1.7367     6.7735     2.7449 C.ar    
  25 N25           -2.8799     7.4353     2.7713 N.ar    
  26 C26           -3.9298     7.0069     2.0853 C.ar    
  27 N27           -3.8823     5.9060     1.3488 N.ar    
  28 C28           -2.7732     5.1926     1.2668 C.ar    
  29 N29           -5.1087     7.7290     2.1397 N.pl3   
  30 F30           -3.8477     5.7527    -1.7528 F       
  31 H31            2.8704     1.0964    -3.6768 H       
  32 H32            4.2120     0.9473    -1.6402 H       
  33 H33            4.4979     1.5456     0.7557 H       
  34 H34           -0.6178     4.3145    -0.1448 H       
  35 H35            0.1121     5.1993     3.9822 H       
  36 H36            2.1910     3.9404     3.9250 H       
  37 H37            0.6304     5.5071    -2.1714 H       
  38 H38           -3.6291     3.2036    -1.2389 H       
  39 H39           -1.5183     1.9396    -1.2013 H       
  40 H40           -0.8852     7.1282     3.3067 H       
  41 H41           -2.7415     4.2967     0.6646 H       
  42 H42           -5.1586     8.5366     2.6747 H       
  43 H43           -5.8854     7.4276     1.6428 H       
@<TRIPOS>BOND
   1    1    2 am
   2    1   10 1
   3    1   17 1
   4    2    3 1
   5    2   15 2
   6    3    4 2
   7    3   31 1
   8    4    5 1
   9    4   32 1
  10    5    6 ar
  11    5   10 ar
  12    6    7 ar
  13    6   33 1
  14    7    8 ar
  15    8    9 ar
  16    8   14 ar
  17    9   10 ar
  18    9   11 ar
  19   11   12 ar
  20   11   34 1
  21   12   13 ar
  22   12   16 1
  23   13   14 ar
  24   13   35 1
  25   14   36 1
  26   16   24 ar
  27   16   28 ar
  28   17   18 ar
  29   17   22 ar
  30   18   19 ar
  31   18   37 1
  32   19   20 ar
  33   19   23 1
  34   20   21 ar
  35   20   30 1
  36   21   22 ar
  37   21   38 1
  38   22   39 1
  39   24   25 ar
  40   24   40 1
  41   25   26 ar
  42   26   27 ar
  43   26   29 1
  44   27   28 ar
  45   28   41 1
  46   29   42 1
  47   29   43 1

#	End of record

