#	Name: ASD03540116
#	Creating user name:	WinNT
#	Creation time:	15. 06. 2019 20:42

#	Modifying user name:	WinNT
#	Modification time:	15. 06. 2019 20:42

#	Program:	/corina/corina34_cracker 3.40 0067  02.08.2006

@<TRIPOS>MOLECULE
ASD03540116
  57   60    0    0    0
SMALL
NO_CHARGES


@<TRIPOS>ATOM
   1 C1            -0.0179     1.4722     0.0101 C.2     
   2 C2             0.0021    -0.0041     0.0020 C.ar    
   3 C3             1.2180    -0.6841    -0.0132 C.ar    
   4 C4             1.2312    -2.0766    -0.0204 C.ar    
   5 C5             2.5146    -2.8050    -0.0361 C.2     
   6 C6             0.0191    -2.7850    -0.0122 C.ar    
   7 C7            -1.1873    -2.0967     0.0031 C.ar    
   8 C8            -1.2000    -0.7201     0.0155 C.ar    
   9 O9             1.0266     2.0944     0.0035 O.2     
  10 N10           -1.1942     2.1301     0.0193 N.am    
  11 O11            2.5235    -4.0208    -0.0423 O.2     
  12 N12            3.6767    -2.1225    -0.0435 N.am    
  13 C13           -1.2140     3.5950     0.0273 C.3     
  14 C14           -2.6633     4.0853     0.0369 C.3     
  15 O15           -3.2912     3.6920     1.2588 O.3     
  16 C16           -4.5908     4.0516     1.4283 C.ar    
  17 C17           -5.2623     3.7027     2.5910 C.ar    
  18 C18           -6.5833     4.0694     2.7609 C.ar    
  19 C19           -7.2362     4.7836     1.7733 C.ar    
  20 C20           -6.5693     5.1322     0.6134 C.ar    
  21 C21           -5.2464     4.7732     0.4414 C.ar    
  22 O22            0.0261    -4.1398    -0.0195 O.3     
  23 C23           -1.2437    -4.7952    -0.0104 C.3     
  24 C24            4.9508    -2.8455    -0.0590 C.3     
  25 O25            9.1945     0.8334     0.1807 O.3     
  26 C26            9.5664     0.5922     1.5506 C.3     
  27 O27            8.3594     0.0828     2.1481 O.3     
  28 C28            7.6675    -0.5042     1.1283 C.ar    
  29 C29            8.1811    -0.0426    -0.0816 C.ar    
  30 C30            6.6211    -1.4116     1.1310 C.ar    
  31 C31            6.0889    -1.8578    -0.0647 C.ar    
  32 C32            6.5988    -1.4001    -1.2650 C.ar    
  33 C33            7.6431    -0.4938    -1.2754 C.ar    
  34 H34            2.1469    -0.1333    -0.0199 H       
  35 H35           -2.1187    -2.6434     0.0090 H       
  36 H36           -2.1413    -0.1909     0.0315 H       
  37 H37           -2.0275     1.6338     0.0205 H       
  38 H38            3.6696    -1.1525    -0.0385 H       
  39 H39           -0.7010     3.9604     0.9169 H       
  40 H40           -0.7094     3.9701    -0.8630 H       
  41 H41           -2.6798     5.1720    -0.0467 H       
  42 H42           -3.2004     3.6480    -0.8048 H       
  43 H43           -4.7528     3.1445     3.3626 H       
  44 H44           -7.1066     3.7976     3.6657 H       
  45 H45           -8.2690     5.0694     1.9080 H       
  46 H46           -7.0816     5.6895    -0.1569 H       
  47 H47           -4.7245     5.0500    -0.4627 H       
  48 H48           -1.0953    -5.8750    -0.0177 H       
  49 H49           -1.7933    -4.5100     0.8866 H       
  50 H50           -1.8110    -4.5004    -0.8932 H       
  51 H51            5.0214    -3.4762     0.8271 H       
  52 H52            5.0048    -3.4672    -0.9527 H       
  53 H53           10.3636    -0.1491     1.6063 H       
  54 H54            9.8707     1.5205     2.0341 H       
  55 H55            6.2212    -1.7715     2.0675 H       
  56 H56            6.1804    -1.7509    -2.1969 H       
  57 H57            8.0390    -0.1373    -2.2148 H       
@<TRIPOS>BOND
   1    1    2 1
   2    1    9 2
   3    1   10 am
   4    2    3 ar
   5    2    8 ar
   6    3    4 ar
   7    3   34 1
   8    4    5 1
   9    4    6 ar
  10    5   11 2
  11    5   12 am
  12    6    7 ar
  13    6   22 1
  14    7    8 ar
  15    7   35 1
  16    8   36 1
  17   10   13 1
  18   10   37 1
  19   12   24 1
  20   12   38 1
  21   13   14 1
  22   13   39 1
  23   13   40 1
  24   14   15 1
  25   14   41 1
  26   14   42 1
  27   15   16 1
  28   16   17 ar
  29   16   21 ar
  30   17   18 ar
  31   17   43 1
  32   18   19 ar
  33   18   44 1
  34   19   20 ar
  35   19   45 1
  36   20   21 ar
  37   20   46 1
  38   21   47 1
  39   22   23 1
  40   23   48 1
  41   23   49 1
  42   23   50 1
  43   24   31 1
  44   24   51 1
  45   24   52 1
  46   25   26 1
  47   25   29 1
  48   26   27 1
  49   26   53 1
  50   26   54 1
  51   27   28 1
  52   28   29 ar
  53   28   30 ar
  54   29   33 ar
  55   30   31 ar
  56   30   55 1
  57   31   32 ar
  58   32   33 ar
  59   32   56 1
  60   33   57 1

#	End of record

