#	Name: ASD01001099
#	Creating user name:	WinNT
#	Creation time:	15. 06. 2019 18:55

#	Modifying user name:	WinNT
#	Modification time:	15. 06. 2019 18:55

#	Program:	/corina/corina34_cracker 3.40 0067  02.08.2006

@<TRIPOS>MOLECULE
ASD01001099
  66   70    0    0    0
SMALL
NO_CHARGES


@<TRIPOS>ATOM
   1 C1             1.1891     0.6501    -2.2523 C.2     
   2 N2             0.5318    -0.3906    -2.8832 N.pl3   
   3 N3            -0.8160    -0.6206    -2.5798 N.2     
   4 C4            -1.4479     0.1162    -1.7292 C.2     
   5 N5            -0.8533     1.1630    -1.0701 N.am    
   6 C6             0.4462     1.4623    -1.2897 C.2     
   7 C7             2.4873     0.6693    -2.7148 C.2     
   8 C8             2.6038    -0.3768    -3.6354 C.2     
   9 C9             1.3998    -0.9996    -3.7142 C.2     
  10 O10            0.9814     2.3895    -0.7090 O.2     
  11 C11           -1.6315     1.9583    -0.1171 C.3     
  12 C12           -0.8652     2.0862     1.1742 C.ar    
  13 C13           -0.0006     3.1482     1.3625 C.ar    
  14 C14            0.7023     3.2655     2.5470 C.ar    
  15 C15            0.5403     2.3210     3.5433 C.ar    
  16 C16           -0.3250     1.2595     3.3553 C.ar    
  17 C17           -1.0312     1.1446     2.1725 C.ar    
  18 C18           -2.8976    -0.1848    -1.4485 C.3     
  19 N19           -3.3387    -1.2954    -2.2961 N.am    
  20 C20           -3.0631    -0.5694     0.0231 C.3     
  21 C21           -2.7138    -2.6134    -2.1604 C.3     
  22 C22           -4.3194    -1.1045    -3.2006 C.2     
  23 C23           -4.8807     0.2475    -3.4083 C.ar    
  24 O24           -4.7425    -2.0438    -3.8457 O.2     
  25 C25           -5.0194     0.7581    -4.6999 C.ar    
  26 C26           -5.5437     2.0203    -4.8867 C.ar    
  27 C27           -5.9318     2.7798    -3.7972 C.ar    
  28 C28           -5.7965     2.2798    -2.5142 C.ar    
  29 C29           -5.2794     1.0165    -2.3139 C.ar    
  30 C30           -6.5038     4.1578    -4.0088 C.3     
  31 C31           -1.8511    -2.8980    -3.3915 C.3     
  32 C32           -1.3036    -4.3245    -3.3120 C.3     
  33 N33           -0.4753    -4.5977    -4.4940 N.3     
  34 Cl34           3.7372     1.7786    -2.2449 Cl      
  35 C35           -4.4873    -0.7689     0.5453 C.3     
  36 C36           -3.5743    -1.9780     0.3319 C.3     
  37 H37            3.4939    -0.6423    -4.1864 H       
  38 H38            1.1742    -1.8486    -4.3425 H       
  39 H39           -1.8112     2.9498    -0.5327 H       
  40 H40           -2.5851     1.4660     0.0735 H       
  41 H41            0.1259     3.8861     0.5842 H       
  42 H42            1.3783     4.0948     2.6939 H       
  43 H43            1.0900     2.4123     4.4685 H       
  44 H44           -0.4513     0.5214     4.1336 H       
  45 H45           -1.7072     0.3152     2.0256 H       
  46 H46           -3.5001     0.6978    -1.6634 H       
  47 H47           -2.3321    -0.1378     0.7068 H       
  48 H48           -2.0890    -2.6291    -1.2674 H       
  49 H49           -3.4883    -3.3757    -2.0754 H       
  50 H50           -4.7165     0.1664    -5.5511 H       
  51 H51           -5.6513     2.4167    -5.8855 H       
  52 H52           -6.1010     2.8778    -1.6680 H       
  53 H53           -5.1747     0.6272    -1.3119 H       
  54 H54           -7.5862     4.0893    -4.1169 H       
  55 H55           -6.2633     4.7866    -3.1516 H       
  56 H56           -6.0755     4.5944    -4.9111 H       
  57 H57           -2.4561    -2.7907    -4.2918 H       
  58 H58           -1.0215    -2.1918    -3.4249 H       
  59 H59           -0.6986    -4.4318    -2.4116 H       
  60 H60           -2.1332    -5.0307    -3.2785 H       
  61 H61           -0.1017    -5.5345    -4.4650 H       
  62 H62           -0.9959    -4.4422    -5.3442 H       
  63 H63           -4.6932    -0.4688     1.5727 H       
  64 H64           -5.3064    -0.6261    -0.1595 H       
  65 H65           -3.7928    -2.6307    -0.5133 H       
  66 H66           -3.1796    -2.4734     1.2190 H       
@<TRIPOS>BOND
   1    1    2 1
   2    1    7 2
   3    1    6 1
   4    2    3 1
   5    2    9 1
   6    3    4 2
   7    4    5 1
   8    4   18 1
   9    5    6 am
  10    5   11 1
  11    6   10 2
  12    7    8 1
  13    7   34 1
  14    8    9 2
  15    8   37 1
  16    9   38 1
  17   11   12 1
  18   11   39 1
  19   11   40 1
  20   12   13 ar
  21   12   17 ar
  22   13   14 ar
  23   13   41 1
  24   14   15 ar
  25   14   42 1
  26   15   16 ar
  27   15   43 1
  28   16   17 ar
  29   16   44 1
  30   17   45 1
  31   18   19 1
  32   18   20 1
  33   18   46 1
  34   19   21 1
  35   19   22 am
  36   20   35 1
  37   20   36 1
  38   20   47 1
  39   21   31 1
  40   21   48 1
  41   21   49 1
  42   22   23 1
  43   22   24 2
  44   23   25 ar
  45   23   29 ar
  46   25   26 ar
  47   25   50 1
  48   26   27 ar
  49   26   51 1
  50   27   28 ar
  51   27   30 1
  52   28   29 ar
  53   28   52 1
  54   29   53 1
  55   30   54 1
  56   30   55 1
  57   30   56 1
  58   31   32 1
  59   31   57 1
  60   31   58 1
  61   32   33 1
  62   32   59 1
  63   32   60 1
  64   33   61 1
  65   33   62 1
  66   35   36 1
  67   35   63 1
  68   35   64 1
  69   36   65 1
  70   36   66 1

#	End of record

