#	Name: ASD01880318
#	Creating user name:	WinNT
#	Creation time:	15. 06. 2019 19:40

#	Modifying user name:	WinNT
#	Modification time:	15. 06. 2019 19:40

#	Program:	/corina/corina34_cracker 3.40 0067  02.08.2006

@<TRIPOS>MOLECULE
ASD01880318
  32   34    0    0    0
SMALL
NO_CHARGES


@<TRIPOS>ATOM
   1 C1            -0.0158     1.3166     0.0093 C.ar    
   2 N2             0.0021    -0.0041     0.0020 N.ar    
   3 C3             1.1445    -0.6746    -0.0125 C.ar    
   4 C4             2.3648     0.0485    -0.0202 C.ar    
   5 C5             2.2891     1.4440    -0.0120 C.ar    
   6 N6             1.0857     2.0309     0.0026 N.ar    
   7 C7             3.7373    -0.4211    -0.0353 C.2     
   8 C8             4.6485     0.5323    -0.0385 C.2     
   9 S9             3.9102     2.1228    -0.0232 S.3     
  10 N10            1.1474    -2.0578    -0.0195 N.pl3   
  11 C11           -0.1198    -2.7930    -0.0109 C.3     
  12 C12            0.1587    -4.2740    -0.0210 C.ar    
  13 C13            0.2978    -4.9583     1.1723 C.ar    
  14 C14            0.5530    -6.3160     1.1657 C.ar    
  15 C15            0.6698    -6.9928    -0.0397 C.ar    
  16 C16            0.5297    -6.3039    -1.2357 C.ar    
  17 C17            0.2689    -4.9473    -1.2236 C.ar    
  18 O18            0.9213    -8.3283    -0.0489 O.3     
  19 C19            1.0287    -8.9594    -1.3264 C.3     
  20 H20           -0.9682     1.8258     0.0165 H       
  21 H21            3.9931    -1.4704    -0.0429 H       
  22 H22            5.7140     0.3560    -0.0492 H       
  23 H23            1.9884    -2.5410    -0.0301 H       
  24 H24           -0.6832    -2.5354     0.8859 H       
  25 H25           -0.7005    -2.5264    -0.8939 H       
  26 H26            0.2072    -4.4309     2.1104 H       
  27 H27            0.6620    -6.8500     2.0981 H       
  28 H28            0.6201    -6.8285    -2.1754 H       
  29 H29            0.1598    -4.4105    -2.1544 H       
  30 H30            0.0945    -8.8336    -1.8736 H       
  31 H31            1.8436    -8.5040    -1.8893 H       
  32 H32            1.2302   -10.0220    -1.1909 H       
@<TRIPOS>BOND
   1    1    2 ar
   2    1    6 ar
   3    1   20 1
   4    2    3 ar
   5    3    4 ar
   6    3   10 1
   7    4    5 ar
   8    4    7 1
   9    5    6 ar
  10    5    9 1
  11    7    8 2
  12    7   21 1
  13    8    9 1
  14    8   22 1
  15   10   11 1
  16   10   23 1
  17   11   12 1
  18   11   24 1
  19   11   25 1
  20   12   13 ar
  21   12   17 ar
  22   13   14 ar
  23   13   26 1
  24   14   15 ar
  25   14   27 1
  26   15   16 ar
  27   15   18 1
  28   16   17 ar
  29   16   28 1
  30   17   29 1
  31   18   19 1
  32   19   30 1
  33   19   31 1
  34   19   32 1

#	End of record

