#	Name: ASD01812111
#	Creating user name:	WinNT
#	Creation time:	15. 06. 2019 19:28

#	Modifying user name:	WinNT
#	Modification time:	15. 06. 2019 19:28

#	Program:	/corina/corina34_cracker 3.40 0067  02.08.2006

@<TRIPOS>MOLECULE
ASD01812111
  41   44    0    0    0
SMALL
NO_CHARGES


@<TRIPOS>ATOM
   1 C1            -0.0169     1.3972     0.0097 C.2     
   2 C2             0.0021    -0.0041     0.0020 C.2     
   3 C3             1.1986    -0.6593    -0.0129 C.2     
   4 C4             2.3918     0.0821    -0.0204 C.2     
   5 N5             2.3437     1.4497    -0.0122 N.am    
   6 C6             1.1421     2.0937     0.0024 C.2     
   7 C7             3.6227    -0.5889    -0.0356 C.2     
   8 C8             4.7877     0.1218    -0.0425 C.2     
   9 C9             4.7345     1.5280    -0.0346 C.2     
  10 C10            3.4812     2.1736    -0.0189 C.2     
  11 O11            3.4258     3.3917    -0.0123 O.2     
  12 C12            5.9703     2.3140    -0.0413 C.2     
  13 O13            5.9124     3.6618    -0.0337 O.3     
  14 O14            7.0487     1.7516    -0.0537 O.2     
  15 C15            3.6593    -2.0954    -0.0439 C.3     
  16 N16            3.7787    -2.5747    -1.4274 N.3     
  17 C17            4.0553    -4.0195    -1.4629 C.3     
  18 C18            3.8076    -4.5299    -2.8835 C.3     
  19 C19            4.5354    -3.6599    -3.8731 C.ar    
  20 C20            5.0029    -2.4082    -3.5300 C.ar    
  21 C21            4.8211    -1.8378    -2.1511 C.3     
  22 N22            4.7331    -4.1055    -5.1067 N.ar    
  23 C23            5.3640    -3.3691    -5.9980 C.ar    
  24 N24            5.8221    -2.1682    -5.7061 N.ar    
  25 C25            5.6622    -1.6594    -4.4956 C.ar    
  26 H26           -0.9605     1.9226     0.0170 H       
  27 H27           -0.9233    -0.5609     0.0082 H       
  28 H28            1.2282    -1.7389    -0.0187 H       
  29 H29            1.1156     3.1733     0.0087 H       
  30 H30            5.7393    -0.3889    -0.0536 H       
  31 H31            6.7544     4.1373    -0.0385 H       
  32 H32            4.5153    -2.4412     0.5356 H       
  33 H33            2.7412    -2.4836     0.3971 H       
  34 H34            5.0938    -4.2001    -1.1852 H       
  35 H35            3.3932    -4.5359    -0.7680 H       
  36 H36            4.1686    -5.5550    -2.9682 H       
  37 H37            2.7389    -4.5047    -3.0962 H       
  38 H38            4.5338    -0.7893    -2.2294 H       
  39 H39            5.7606    -1.9117    -1.6034 H       
  40 H40            5.5102    -3.7598    -6.9942 H       
  41 H41            6.0391    -0.6747    -4.2616 H       
@<TRIPOS>BOND
   1    1    2 1
   2    1    6 2
   3    1   26 1
   4    2    3 2
   5    2   27 1
   6    3    4 1
   7    3   28 1
   8    4    5 1
   9    4    7 2
  10    5    6 1
  11    5   10 am
  12    6   29 1
  13    7    8 1
  14    7   15 1
  15    8    9 2
  16    8   30 1
  17    9   10 1
  18    9   12 1
  19   10   11 2
  20   12   13 1
  21   12   14 2
  22   13   31 1
  23   15   16 1
  24   15   32 1
  25   15   33 1
  26   16   17 1
  27   16   21 1
  28   17   18 1
  29   17   34 1
  30   17   35 1
  31   18   19 1
  32   18   36 1
  33   18   37 1
  34   19   20 ar
  35   19   22 ar
  36   20   21 1
  37   20   25 ar
  38   21   38 1
  39   21   39 1
  40   22   23 ar
  41   23   24 ar
  42   23   40 1
  43   24   25 ar
  44   25   41 1

#	End of record

