#	Name: ASD05430071
#	Creating user name:	WinNT
#	Creation time:	15. 06. 2019 20:59

#	Modifying user name:	WinNT
#	Modification time:	15. 06. 2019 20:59

#	Program:	/corina/corina34_cracker 3.40 0067  02.08.2006

@<TRIPOS>MOLECULE
ASD05430071
  70   75    0    0    0
SMALL
NO_CHARGES


@<TRIPOS>ATOM
   1 C1             0.0550     1.1855     0.3885 C.ar    
   2 C2             0.0203    -0.0139    -0.3219 C.ar    
   3 C3             1.1710    -0.4981    -0.9303 C.ar    
   4 C4             2.3528     0.2041    -0.8347 C.ar    
   5 C5             2.3953     1.4081    -0.1238 C.ar    
   6 C6             1.2366     1.8957     0.4885 C.ar    
   7 C7             4.8682    -0.0046     0.2173 C.3     
   8 C8             4.8285     1.4999     0.0679 C.2     
   9 C9             3.6566     2.1594    -0.0200 C.2     
  10 C10            6.2132    -0.4393     0.7913 C.3     
  11 C11            6.8763     0.5923     1.7021 C.3     
  12 N12            7.0890     1.8290     0.9475 N.pl3   
  13 C13            6.1102     2.2202     0.0220 C.2     
  14 N14           -1.1792    -0.7332    -0.4217 N.pl3   
  15 C15           -1.7427    -1.2223    -1.5716 C.2     
  16 C16           -2.8827    -1.8437    -1.2137 C.2     
  17 N17           -3.0162    -1.7398     0.1167 N.2     
  18 C18           -1.9992    -1.0818     0.6033 C.2     
  19 C19           -3.8423    -2.5361    -2.1469 C.3     
  20 C20           -0.9665     2.8937     1.6896 C.3     
  21 O21           -1.0747     1.6592     0.9780 O.3     
  22 C22            8.2672     2.6691     1.1556 C.3     
  23 C23            8.7528     3.1854    -0.2036 C.3     
  24 N24            7.6177     3.7292    -0.9531 N.pl3   
  25 N25            6.3478     3.1499    -0.8484 N.2     
  26 C26            7.9062     3.8353     2.0392 C.ar    
  27 C27            8.8667     4.7708     2.3757 C.ar    
  28 C28            6.6133     3.9726     2.5086 C.ar    
  29 C29            6.2822     5.0423     3.3191 C.ar    
  30 C30            7.2441     5.9745     3.6606 C.ar    
  31 C31            8.5356     5.8405     3.1862 C.ar    
  32 C32            6.1852    -1.8514     1.3983 C.3     
  33 N33            7.4926    -2.0536     0.7348 N.3     
  34 C34            7.1681    -1.0138    -0.2673 C.3     
  35 C35            9.3741     1.8451     1.8164 C.3     
  36 C36            6.8830     7.1410     4.5437 C.3     
  37 F37            7.0820     6.7907     5.8835 F       
  38 F38            7.6918     8.2366     4.2231 F       
  39 F39            5.5401     7.4786     4.3445 F       
  40 H40            1.1396    -1.4275    -1.4795 H       
  41 H41            3.2463    -0.1752    -1.3083 H       
  42 H42            1.2649     2.8248     1.0383 H       
  43 H43            4.0695    -0.3224     0.8875 H       
  44 H44            4.7246    -0.4686    -0.7585 H       
  45 H45            3.6429     3.2393    -0.0142 H       
  46 H46            6.2300     0.7931     2.5566 H       
  47 H47            7.8350     0.2083     2.0507 H       
  48 H48           -1.3485    -1.1270    -2.5725 H       
  49 H49           -1.8403    -0.8471     1.6455 H       
  50 H50           -3.5563    -3.5827    -2.2512 H       
  51 H51           -4.8521    -2.4741    -1.7412 H       
  52 H52           -3.8126    -2.0522    -3.1231 H       
  53 H53           -0.2390     2.7867     2.4942 H       
  54 H54           -0.6408     3.6789     1.0073 H       
  55 H55           -1.9370     3.1571     2.1099 H       
  56 H56            9.4957     3.9683    -0.0506 H       
  57 H57            9.1997     2.3652    -0.7653 H       
  58 H58            7.7476     4.4993    -1.5283 H       
  59 H59            9.8758     4.6658     2.0056 H       
  60 H60            5.8617     3.2443     2.2419 H       
  61 H61            5.2719     5.1500     3.6853 H       
  62 H62            9.2871     6.5688     3.4529 H       
  63 H63            6.2387    -1.8627     2.4870 H       
  64 H64            5.3898    -2.4835     1.0037 H       
  65 H65            8.2505    -1.7570     1.3312 H       
  66 H66            6.6620    -1.3994    -1.1523 H       
  67 H67            8.0050    -0.3577    -0.5063 H       
  68 H68            9.6365     1.0061     1.1719 H       
  69 H69           10.2516     2.4730     1.9707 H       
  70 H70            9.0229     1.4691     2.7773 H       
@<TRIPOS>BOND
   1    1    2 ar
   2    1    6 ar
   3    1   21 1
   4    2    3 ar
   5    2   14 1
   6    3    4 ar
   7    3   40 1
   8    4    5 ar
   9    4   41 1
  10    5    6 ar
  11    5    9 1
  12    6   42 1
  13    7    8 1
  14    7   10 1
  15    7   43 1
  16    7   44 1
  17    8    9 2
  18    8   13 1
  19    9   45 1
  20   10   11 1
  21   10   32 1
  22   10   34 1
  23   11   12 1
  24   11   46 1
  25   11   47 1
  26   12   13 1
  27   12   22 1
  28   13   25 2
  29   14   15 1
  30   14   18 1
  31   15   16 2
  32   15   48 1
  33   16   17 1
  34   16   19 1
  35   17   18 2
  36   18   49 1
  37   19   50 1
  38   19   51 1
  39   19   52 1
  40   20   21 1
  41   20   53 1
  42   20   54 1
  43   20   55 1
  44   22   23 1
  45   22   26 1
  46   22   35 1
  47   23   24 1
  48   23   56 1
  49   23   57 1
  50   24   25 1
  51   24   58 1
  52   26   27 ar
  53   26   28 ar
  54   27   31 ar
  55   27   59 1
  56   28   29 ar
  57   28   60 1
  58   29   30 ar
  59   29   61 1
  60   30   31 ar
  61   30   36 1
  62   31   62 1
  63   32   33 1
  64   32   63 1
  65   32   64 1
  66   33   34 1
  67   33   65 1
  68   34   66 1
  69   34   67 1
  70   35   68 1
  71   35   69 1
  72   35   70 1
  73   36   37 1
  74   36   38 1
  75   36   39 1

#	End of record

