#	Name: ASD01811671
#	Creating user name:	WinNT
#	Creation time:	15. 06. 2019 19:27

#	Modifying user name:	WinNT
#	Modification time:	15. 06. 2019 19:27

#	Program:	/corina/corina34_cracker 3.40 0067  02.08.2006

@<TRIPOS>MOLECULE
ASD01811671
  61   66    0    0    0
SMALL
NO_CHARGES


@<TRIPOS>ATOM
   1 C1            -0.3908     2.1495    -0.3986 C.ar    
   2 C2            -0.5037     0.7839    -0.2107 C.ar    
   3 C3             0.6202     0.0172     0.0162 C.ar    
   4 C4             1.8785     0.6125     0.0585 C.ar    
   5 C5             1.9803     1.9887    -0.1312 C.ar    
   6 C6             0.8551     2.7494    -0.3583 C.ar    
   7 N7             3.1438     0.0586     0.2685 N.am    
   8 C8             4.1179     0.9906     0.2363 C.2     
   9 C9             3.4413     2.3040    -0.0240 C.3     
  10 C10            3.9811     2.9917    -1.2860 C.3     
  11 N11            5.1731     3.7339    -0.8282 N.am    
  12 C12            5.0541     3.9754     0.6183 C.3     
  13 C13            3.7300     3.3291     1.0854 C.3     
  14 C14            6.2009     4.1253    -1.6072 C.2     
  15 C15            7.2744     4.9719    -1.0444 C.ar    
  16 O16            6.2453     3.7823    -2.7725 O.2     
  17 C17            8.2592     5.5022    -1.8793 C.ar    
  18 C18            9.2579     6.2918    -1.3478 C.ar    
  19 C19            9.2849     6.5580     0.0097 C.ar    
  20 C20            8.3117     6.0354     0.8428 C.ar    
  21 C21            7.3042     5.2490     0.3233 C.ar    
  22 O22            5.3067     0.8037     0.3878 O.2     
  23 C23            3.3843    -1.3682     0.4977 C.3     
  24 C24            3.6119    -2.0577    -0.8229 C.ar    
  25 C25            4.8518    -1.9818    -1.4369 C.ar    
  26 C26            5.0646    -2.6132    -2.6480 C.ar    
  27 C27            4.0301    -3.3259    -3.2497 C.ar    
  28 C28            2.7862    -3.3983    -2.6272 C.ar    
  29 C29            2.5847    -2.7687    -1.4151 C.ar    
  30 F30            5.8535    -1.2896    -0.8515 F       
  31 C31            4.2525    -4.0058    -4.5508 C.2     
  32 C32            5.4515    -4.0170    -5.2897 C.2     
  33 N33            5.2534    -4.7187    -6.3741 N.2     
  34 N34            3.9313    -5.1795    -6.3705 N.pl3   
  35 C35            3.3344    -4.7383    -5.2450 C.2     
  36 C36            3.3060    -6.0034    -7.4080 C.3     
  37 H37           -1.2729     2.7454    -0.5809 H       
  38 H38           -1.4765     0.3157    -0.2415 H       
  39 H39            0.5240    -1.0486     0.1620 H       
  40 H40            0.9454     3.8155    -0.5055 H       
  41 H41            4.2602     2.2489    -2.0334 H       
  42 H42            3.2384     3.6788    -1.6912 H       
  43 H43            5.8943     3.5178     1.1406 H       
  44 H44            5.0327     5.0474     0.8145 H       
  45 H45            2.9354     4.0732     1.1400 H       
  46 H46            3.8612     2.8315     2.0463 H       
  47 H47            8.2397     5.2946    -2.9390 H       
  48 H48           10.0205     6.7028    -1.9927 H       
  49 H49           10.0692     7.1761     0.4208 H       
  50 H50            8.3384     6.2469     1.9015 H       
  51 H51            6.5449     4.8420     0.9746 H       
  52 H52            4.2646    -1.4916     1.1285 H       
  53 H53            2.5182    -1.8078     0.9925 H       
  54 H54            6.0308    -2.5538    -3.1269 H       
  55 H55            1.9812    -3.9495    -3.0904 H       
  56 H56            1.6203    -2.8252    -0.9323 H       
  57 H57            6.3738    -3.5300    -5.0093 H       
  58 H58            2.3125    -4.9253    -4.9496 H       
  59 H59            3.4480    -7.0575    -7.1695 H       
  60 H60            2.2398    -5.7818    -7.4544 H       
  61 H61            3.7650    -5.7839    -8.3720 H       
@<TRIPOS>BOND
   1    1    2 ar
   2    1    6 ar
   3    1   37 1
   4    2    3 ar
   5    2   38 1
   6    3    4 ar
   7    3   39 1
   8    4    5 ar
   9    4    7 1
  10    5    6 ar
  11    5    9 1
  12    6   40 1
  13    7    8 am
  14    7   23 1
  15    8    9 1
  16    8   22 2
  17    9   10 1
  18    9   13 1
  19   10   11 1
  20   10   41 1
  21   10   42 1
  22   11   12 1
  23   11   14 am
  24   12   13 1
  25   12   43 1
  26   12   44 1
  27   13   45 1
  28   13   46 1
  29   14   15 1
  30   14   16 2
  31   15   17 ar
  32   15   21 ar
  33   17   18 ar
  34   17   47 1
  35   18   19 ar
  36   18   48 1
  37   19   20 ar
  38   19   49 1
  39   20   21 ar
  40   20   50 1
  41   21   51 1
  42   23   24 1
  43   23   52 1
  44   23   53 1
  45   24   25 ar
  46   24   29 ar
  47   25   26 ar
  48   25   30 1
  49   26   27 ar
  50   26   54 1
  51   27   28 ar
  52   27   31 1
  53   28   29 ar
  54   28   55 1
  55   29   56 1
  56   31   32 1
  57   31   35 2
  58   32   33 2
  59   32   57 1
  60   33   34 1
  61   34   35 1
  62   34   36 1
  63   35   58 1
  64   36   59 1
  65   36   60 1
  66   36   61 1

#	End of record

