#	Name: ASD07932035
#	Creating user name:	WinNT
#	Creation time:	15. 06. 2019 21:14

#	Modifying user name:	WinNT
#	Modification time:	15. 06. 2019 21:14

#	Program:	/corina/corina34_cracker 3.40 0067  02.08.2006

@<TRIPOS>MOLECULE
ASD07932035
  30   30    0    0    0
SMALL
NO_CHARGES


@<TRIPOS>ATOM
   1 C1            -0.0178     1.4608     0.0101 C.3     
   2 N2             0.0021    -0.0041     0.0020 N.am    
   3 C3             1.3960     1.9824    -0.0006 C.ar    
   4 C4             2.0321     2.2277    -1.2035 C.ar    
   5 C5             3.3280     2.7059    -1.2160 C.ar    
   6 C6             3.9914     2.9399    -0.0203 C.ar    
   7 C7             3.3510     2.6930     1.1854 C.ar    
   8 C8             2.0529     2.2202     1.1925 C.ar    
   9 C9             0.1346    -0.7418     1.2608 C.3     
  10 H10           -0.8552    -0.9391     1.6722 H       
  11 H11            0.6463    -1.6863     1.0762 H       
  12 H12            0.7115    -0.1487     1.9705 H       
  13 O13            5.2665     3.4099    -0.0299 O.3     
  14 C14            5.8873     3.6277     1.2387 C.3     
  15 S15           -0.1253    -0.8260    -1.4299 S.o2    
  16 O16           -0.6803    -2.0822    -1.0648 O.2     
  17 O17           -0.8289     0.0653    -2.2842 O.2     
  18 C18            1.5881    -1.0260    -1.9910 C.3     
  19 H19           -0.5450     1.8219    -0.8730 H       
  20 H20           -0.5280     1.8123     0.9069 H       
  21 H21            1.5154     2.0450    -2.1342 H       
  22 H22            3.8246     2.8970    -2.1559 H       
  23 H23            3.8652     2.8744     2.1176 H       
  24 H24            1.5538     2.0281     2.1308 H       
  25 H25            5.3100     4.3585     1.8050 H       
  26 H26            5.9255     2.6884     1.7905 H       
  27 H27            6.8998     4.0021     1.0882 H       
  28 H28            2.1506    -1.5898    -1.2469 H       
  29 H29            1.5995    -1.5636    -2.9392 H       
  30 H30            2.0437    -0.0448    -2.1242 H       
@<TRIPOS>BOND
   1    1    2 1
   2    1    3 1
   3    1   19 1
   4    1   20 1
   5    2    9 1
   6    2   15 am
   7    3    4 ar
   8    3    8 ar
   9    4    5 ar
  10    4   21 1
  11    5    6 ar
  12    5   22 1
  13    6    7 ar
  14    6   13 1
  15    7    8 ar
  16    7   23 1
  17    8   24 1
  18    9   10 1
  19    9   11 1
  20    9   12 1
  21   13   14 1
  22   14   25 1
  23   14   26 1
  24   14   27 1
  25   15   16 2
  26   15   17 2
  27   15   18 1
  28   18   28 1
  29   18   29 1
  30   18   30 1

#	End of record

