#	Name: ASD00311468
#	Creating user name:	WinNT
#	Creation time:	15. 06. 2019 18:34

#	Modifying user name:	WinNT
#	Modification time:	15. 06. 2019 18:34

#	Program:	/corina/corina34_cracker 3.40 0067  02.08.2006

@<TRIPOS>MOLECULE
ASD00311468
  45   49    0    0    0
SMALL
NO_CHARGES


@<TRIPOS>ATOM
   1 C1            -0.0167     1.3780     0.0096 C.2     
   2 C2             0.0021    -0.0041     0.0020 C.2     
   3 C3             1.2582    -0.6767    -0.0136 C.2     
   4 C4             2.4321     0.0678    -0.0208 C.2     
   5 C5             2.3575     1.4765    -0.0125 C.2     
   6 N6             1.1646     2.0909     0.0022 N.am    
   7 C7            -1.3434    -0.5751     0.0118 C.2     
   8 C8            -2.3228     0.3263     0.0260 C.2     
   9 S9            -1.6794     1.9564     0.0358 S.3     
  10 O10            3.3819     2.1390    -0.0183 O.2     
  11 C11            5.8243    -1.1325    -1.1050 C.ar    
  12 C12            4.6086    -0.4837    -1.1324 C.ar    
  13 C13            3.7467    -0.6105    -0.0365 C.ar    
  14 C14            4.1636    -1.3965     1.0444 C.ar    
  15 C15            5.3965    -2.0102     0.9881 C.ar    
  16 N16            6.1788    -1.8644    -0.0651 N.ar    
  17 O17            1.3078    -2.0288    -0.0209 O.3     
  18 C18           -2.0693    -4.7661    -0.0067 C.ar    
  19 C19           -2.7061    -3.9524     0.9302 C.ar    
  20 C20           -2.4713    -2.5954     0.9366 C.ar    
  21 C21           -1.5960    -2.0346     0.0056 C.ar    
  22 C22           -0.9590    -2.8491    -0.9316 C.ar    
  23 C23           -1.1944    -4.2060    -0.9373 C.ar    
  24 C24           -2.3182    -6.2280    -0.0096 C.ar    
  25 C25           -1.6830    -7.0434    -0.9449 C.ar    
  26 C26           -1.9172    -8.4030    -0.9435 C.ar    
  27 C27           -2.7822    -8.9582    -0.0144 C.ar    
  28 C28           -3.4162    -8.1516     0.9168 C.ar    
  29 C29           -3.1836    -6.7917     0.9267 C.ar    
  30 F30           -3.0086   -10.2901    -0.0168 F       
  31 H31            1.1319     3.0603     0.0077 H       
  32 H32           -3.3754     0.0848     0.0344 H       
  33 H33            6.4942    -1.0445    -1.9475 H       
  34 H34            4.3252     0.1137    -1.9864 H       
  35 H35            3.5289    -1.5198     1.9095 H       
  36 H36            5.7270    -2.6186     1.8170 H       
  37 H37            2.2050    -2.3894    -0.0314 H       
  38 H38           -3.3835    -4.3865     1.6507 H       
  39 H39           -2.9649    -1.9652     1.6616 H       
  40 H40           -0.2813    -2.4155    -1.6520 H       
  41 H41           -0.7013    -4.8365    -1.6623 H       
  42 H42           -1.0088    -6.6115    -1.6697 H       
  43 H43           -1.4257    -9.0355    -1.6680 H       
  44 H44           -4.0899    -8.5886     1.6389 H       
  45 H45           -3.6748    -6.1643     1.6557 H       
@<TRIPOS>BOND
   1    1    2 2
   2    1    6 1
   3    1    9 1
   4    2    3 1
   5    2    7 1
   6    3    4 2
   7    3   17 1
   8    4    5 1
   9    4   13 1
  10    5    6 am
  11    5   10 2
  12    6   31 1
  13    7    8 2
  14    7   21 1
  15    8    9 1
  16    8   32 1
  17   11   12 ar
  18   11   16 ar
  19   11   33 1
  20   12   13 ar
  21   12   34 1
  22   13   14 ar
  23   14   15 ar
  24   14   35 1
  25   15   16 ar
  26   15   36 1
  27   17   37 1
  28   18   19 ar
  29   18   23 ar
  30   18   24 1
  31   19   20 ar
  32   19   38 1
  33   20   21 ar
  34   20   39 1
  35   21   22 ar
  36   22   23 ar
  37   22   40 1
  38   23   41 1
  39   24   25 ar
  40   24   29 ar
  41   25   26 ar
  42   25   42 1
  43   26   27 ar
  44   26   43 1
  45   27   28 ar
  46   27   30 1
  47   28   29 ar
  48   28   44 1
  49   29   45 1

#	End of record

