#	Name: ASD01190054
#	Creating user name:	WinNT
#	Creation time:	15. 06. 2019 19:07

#	Modifying user name:	WinNT
#	Modification time:	15. 06. 2019 19:07

#	Program:	/corina/corina34_cracker 3.40 0067  02.08.2006

@<TRIPOS>MOLECULE
ASD01190054
  61   65    0    0    0
SMALL
NO_CHARGES


@<TRIPOS>ATOM
   1 C1            -0.0187     1.5258     0.0104 C.3     
   2 C2             0.0095     0.0363     0.3589 C.3     
   3 N3             5.2762     3.3989    -0.2445 N.pl3   
   4 N4             5.6905     2.7189    -1.3945 N.2     
   5 C5             4.7132     1.9959    -1.8636 C.2     
   6 C6             3.5587     2.1853    -0.9911 C.ar    
   7 C7             2.2525     1.6833    -0.9835 C.ar    
   8 C8             1.3881     2.0661     0.0008 C.ar    
   9 C9             1.7927     2.9497     0.9940 C.ar    
  10 C10            3.0625     3.4536     1.0075 C.ar    
  11 C11            3.9666     3.0808     0.0165 C.ar    
  12 C12            6.0717     4.2613     0.5211 C.ar    
  13 C13            7.4267     4.0014     0.6782 C.ar    
  14 C14            8.2091     4.8527     1.4334 C.ar    
  15 C15            7.6432     5.9649     2.0338 C.ar    
  16 C16            6.2921     6.2259     1.8784 C.ar    
  17 C17            5.5073     5.3803     1.1193 C.ar    
  18 F18            8.4102     6.7962     2.7726 F       
  19 F19            0.5839    -0.1362     1.6229 F       
  20 F20           -1.2965    -0.4654     0.3678 F       
  21 F21            0.7668    -0.6517    -0.5952 F       
  22 N22           -1.5993     1.2922    -3.3078 N.pl3   
  23 C23           -1.1142     0.7443    -2.1496 C.2     
  24 C24           -0.6374     1.7115    -1.3511 C.2     
  25 C25           -0.8324     2.9829    -2.0539 C.ar    
  26 C26           -0.5464     4.3145    -1.7444 C.ar    
  27 C27           -0.8591     5.3015    -2.6343 C.ar    
  28 C28           -1.4630     4.9901    -3.8520 C.ar    
  29 C29           -1.7540     3.6766    -4.1760 C.ar    
  30 C30           -1.4415     2.6599    -3.2800 C.ar    
  31 N31           -1.7773     6.0126    -4.7520 N.pl3   
  32 C32           -1.4722     7.4051    -4.4143 C.3     
  33 C33           -2.4119     5.6916    -6.0328 C.3     
  34 C34           -2.1917     0.5354    -4.4135 C.3     
  35 C35           -1.1358     0.2518    -5.4506 C.2     
  36 C36           -0.9067    -0.9803    -5.8322 C.2     
  37 O37           -0.7922     2.2285     0.9851 O.3     
  38 H38            4.7507     1.3686    -2.7419 H       
  39 H39            1.9302     0.9967    -1.7524 H       
  40 H40            1.0947     3.2420     1.7646 H       
  41 H41            3.3642     4.1399     1.7849 H       
  42 H42            7.8683     3.1339     0.2105 H       
  43 H43            9.2629     4.6507     1.5562 H       
  44 H44            5.8526     7.0937     2.3478 H       
  45 H45            4.4547     5.5868     0.9943 H       
  46 H46           -1.1154    -0.3097    -1.9142 H       
  47 H47           -0.0791     4.5629    -0.8030 H       
  48 H48           -0.6376     6.3307    -2.3933 H       
  49 H49           -2.2221     3.4420    -5.1206 H       
  50 H50           -0.4703     7.6529    -4.7649 H       
  51 H51           -2.1977     8.0626    -4.8934 H       
  52 H52           -1.5215     7.5361    -3.3333 H       
  53 H53           -3.3664     5.1976    -5.8517 H       
  54 H54           -2.5790     6.6100    -6.5957 H       
  55 H55           -1.7622     5.0285    -6.6041 H       
  56 H56           -2.5924    -0.4054    -4.0362 H       
  57 H57           -2.9954     1.1183    -4.8633 H       
  58 H58           -0.5679     1.0643    -5.8794 H       
  59 H59           -1.4746    -1.7928    -5.4035 H       
  60 H60           -0.1500    -1.1836    -6.5755 H       
  61 H61           -0.8533     3.1805     0.8269 H       
@<TRIPOS>BOND
   1    1    2 1
   2    1    8 1
   3    1   24 1
   4    1   37 1
   5    2   19 1
   6    2   20 1
   7    2   21 1
   8    3    4 1
   9    3   11 1
  10    3   12 1
  11    4    5 2
  12    5    6 1
  13    5   38 1
  14    6    7 ar
  15    6   11 ar
  16    7    8 ar
  17    7   39 1
  18    8    9 ar
  19    9   10 ar
  20    9   40 1
  21   10   11 ar
  22   10   41 1
  23   12   13 ar
  24   12   17 ar
  25   13   14 ar
  26   13   42 1
  27   14   15 ar
  28   14   43 1
  29   15   16 ar
  30   15   18 1
  31   16   17 ar
  32   16   44 1
  33   17   45 1
  34   22   23 1
  35   22   30 1
  36   22   34 1
  37   23   24 2
  38   23   46 1
  39   24   25 1
  40   25   26 ar
  41   25   30 ar
  42   26   27 ar
  43   26   47 1
  44   27   28 ar
  45   27   48 1
  46   28   29 ar
  47   28   31 1
  48   29   30 ar
  49   29   49 1
  50   31   32 1
  51   31   33 1
  52   32   50 1
  53   32   51 1
  54   32   52 1
  55   33   53 1
  56   33   54 1
  57   33   55 1
  58   34   35 1
  59   34   56 1
  60   34   57 1
  61   35   36 2
  62   35   58 1
  63   36   59 1
  64   36   60 1
  65   37   61 1

#	End of record

