#	Name: ASD03240017
#	Creating user name:	WinNT
#	Creation time:	15. 06. 2019 20:34

#	Modifying user name:	WinNT
#	Modification time:	15. 06. 2019 20:34

#	Program:	/corina/corina34_cracker 3.40 0067  02.08.2006

@<TRIPOS>MOLECULE
ASD03240017
  73   80    0    0    0
SMALL
NO_CHARGES


@<TRIPOS>ATOM
   1 C1             0.0561     1.4987     0.1654 C.ar    
   2 C2            -0.0621     0.1023    -0.0590 C.ar    
   3 N3             1.2669     2.0648     0.2081 N.ar    
   4 C4             2.3459     1.3223     0.0413 C.ar    
   5 C5             2.2280    -0.0719    -0.1827 C.ar    
   6 N6             1.0379    -0.6413    -0.2267 N.ar    
   7 C7             3.4461    -0.8943    -0.3684 C.ar    
   8 C8             3.6867     1.9502     0.0882 C.ar    
   9 C9             3.9253     3.1434    -0.5934 C.ar    
  10 C10            5.1764     3.7234    -0.5459 C.ar    
  11 C11            6.1930     3.1238     0.1758 C.ar    
  12 C12            5.9624     1.9402     0.8540 C.ar    
  13 C13            4.7140     1.3536     0.8189 C.ar    
  14 C14            3.5740    -2.1153     0.2933 C.ar    
  15 C15            4.7108    -2.8771     0.1160 C.ar    
  16 C16            5.7223    -2.4319    -0.7162 C.ar    
  17 C17            5.6014    -1.2214    -1.3749 C.ar    
  18 C18            4.4669    -0.4534    -1.2101 C.ar    
  19 C19            6.9612    -3.2688    -0.9054 C.3     
  20 N20            6.7658    -4.1837    -2.0379 N.3     
  21 C21            8.0249    -4.8452    -2.4035 C.3     
  22 C22            7.8168    -5.6757    -3.6719 C.3     
  23 C23            6.7250    -6.7191    -3.4196 C.3     
  24 C24            5.4381    -6.0070    -2.9937 C.3     
  25 C25            5.7151    -5.1669    -1.7449 C.3     
  26 N26            6.4805    -7.4788    -4.6482 N.am    
  27 C27            6.6323    -8.8551    -4.7994 C.ar    
  28 C28            6.2961    -9.1554    -6.1208 C.ar    
  29 N29            5.9503    -7.9523    -6.7316 N.am    
  30 C30            6.0652    -6.9664    -5.8219 C.2     
  31 C31            7.0226    -9.8696    -3.9385 C.ar    
  32 C32            7.0771   -11.1730    -4.3920 C.ar    
  33 C33            6.7437   -11.4708    -5.7022 C.ar    
  34 C34            6.3538   -10.4670    -6.5670 C.ar    
  35 O35            5.8366    -5.7897    -6.0312 O.2     
  36 C36           -1.3372    -0.4835    -0.1026 C.ar    
  37 C37           -2.4572     0.3068     0.0732 C.ar    
  38 C38           -2.3288     1.6875     0.2941 C.ar    
  39 C39           -1.1049     2.2752     0.3352 C.ar    
  40 C40           -3.8067    -0.3088     0.0277 C.2     
  41 N41           -4.9606     0.3114     0.1769 N.2     
  42 N42           -5.8971    -0.5676     0.0712 N.pl3   
  43 N43           -5.3737    -1.7245    -0.1402 N.2     
  44 N44           -4.0902    -1.6028    -0.1790 N.2     
  45 H45            3.1325     3.6122    -1.1574 H       
  46 H46            5.3625     4.6471    -1.0736 H       
  47 H47            7.1707     3.5813     0.2097 H       
  48 H48            6.7600     1.4768     1.4158 H       
  49 H49            4.5351     0.4298     1.3490 H       
  50 H50            2.7851    -2.4637     0.9434 H       
  51 H51            4.8112    -3.8226     0.6281 H       
  52 H52            6.3947    -0.8787    -2.0227 H       
  53 H53            4.3735     0.4913    -1.7251 H       
  54 H54            7.8121    -2.6179    -1.1068 H       
  55 H55            7.1515    -3.8460    -0.0006 H       
  56 H56            8.7917    -4.0919    -2.5842 H       
  57 H57            8.3417    -5.4978    -1.5900 H       
  58 H58            7.5133    -5.0217    -4.4894 H       
  59 H59            8.7475    -6.1789    -3.9341 H       
  60 H60            7.0450    -7.3972    -2.6285 H       
  61 H61            5.0971    -5.3582    -3.8005 H       
  62 H62            4.6692    -6.7469    -2.7714 H       
  63 H63            6.0428    -5.8180    -0.9345 H       
  64 H64            4.8043    -4.6473    -1.4474 H       
  65 H65            5.6708    -7.8438    -7.6541 H       
  66 H66            7.2838    -9.6411    -2.9158 H       
  67 H67            7.3814   -11.9632    -3.7217 H       
  68 H68            6.7886   -12.4924    -6.0496 H       
  69 H69            6.0941   -10.7032    -7.5883 H       
  70 H70           -1.4422    -1.5448    -0.2729 H       
  71 H71           -3.2145     2.2905     0.4291 H       
  72 H72           -1.0226     3.3384     0.5061 H       
  73 H73           -6.8474    -0.3859     0.1404 H       
@<TRIPOS>BOND
   1    1    2 ar
   2    1    3 ar
   3    1   39 ar
   4    2   36 ar
   5    2    6 ar
   6    3    4 ar
   7    4    5 ar
   8    4    8 1
   9    5    6 ar
  10    5    7 1
  11    7   14 ar
  12    7   18 ar
  13    8    9 ar
  14    8   13 ar
  15    9   10 ar
  16    9   45 1
  17   10   11 ar
  18   10   46 1
  19   11   12 ar
  20   11   47 1
  21   12   13 ar
  22   12   48 1
  23   13   49 1
  24   14   15 ar
  25   14   50 1
  26   15   16 ar
  27   15   51 1
  28   16   17 ar
  29   16   19 1
  30   17   18 ar
  31   17   52 1
  32   18   53 1
  33   19   20 1
  34   19   54 1
  35   19   55 1
  36   20   21 1
  37   20   25 1
  38   21   22 1
  39   21   56 1
  40   21   57 1
  41   22   23 1
  42   22   58 1
  43   22   59 1
  44   23   24 1
  45   23   26 1
  46   23   60 1
  47   24   25 1
  48   24   61 1
  49   24   62 1
  50   25   63 1
  51   25   64 1
  52   26   27 1
  53   26   30 am
  54   27   28 ar
  55   27   31 ar
  56   28   29 1
  57   28   34 ar
  58   29   30 am
  59   29   65 1
  60   30   35 2
  61   31   32 ar
  62   31   66 1
  63   32   33 ar
  64   32   67 1
  65   33   34 ar
  66   33   68 1
  67   34   69 1
  68   36   37 ar
  69   36   70 1
  70   37   38 ar
  71   37   40 1
  72   38   39 ar
  73   38   71 1
  74   39   72 1
  75   40   41 2
  76   40   44 1
  77   41   42 1
  78   42   43 1
  79   42   73 1
  80   43   44 2

#	End of record

