#	Name: ASD00170777
#	Creating user name:	WinNT
#	Creation time:	15. 06. 2019 18:32

#	Modifying user name:	WinNT
#	Modification time:	15. 06. 2019 18:32

#	Program:	/corina/corina34_cracker 3.40 0067  02.08.2006

@<TRIPOS>MOLECULE
ASD00170777
  60   64    0    0    0
SMALL
NO_CHARGES


@<TRIPOS>ATOM
   1 F1            -0.3041     0.2719     1.3566 F       
   2 C2            -0.2730     1.6163     1.2276 C.ar    
   3 C3             0.7397     2.2164     0.4964 C.ar    
   4 C4             0.7765     3.5886     0.3618 C.ar    
   5 C5            -0.2090     4.3730     0.9633 C.ar    
   6 C6            -1.2270     3.7632     1.6983 C.ar    
   7 C7            -1.2571     2.3898     1.8221 C.ar    
   8 C8            -0.1745     5.8441     0.8229 C.2     
   9 S9             1.2295     6.8508     1.1390 S.3     
  10 C10            0.3749     8.2714     0.7371 C.2     
  11 C11           -0.9188     7.9680     0.3816 C.2     
  12 C12           -1.2084     6.6014     0.4305 C.2     
  13 C13           -2.5603     6.0331     0.0830 C.3     
  14 C14           -2.5800     5.6301    -1.3928 C.3     
  15 C15           -1.5716     4.5036    -1.6274 C.3     
  16 C16           -3.9816     5.1467    -1.7707 C.3     
  17 C17           -2.2067     6.8368    -2.2561 C.3     
  18 C18           -1.9001     8.9820    -0.0154 C.2     
  19 O19           -1.9162     9.3985    -1.1591 O.2     
  20 C20           -2.8702     9.4987     0.9732 C.ar    
  21 C21           -3.8696    10.3891     0.5753 C.ar    
  22 C22           -4.7718    10.8672     1.5019 C.ar    
  23 C23           -4.6880    10.4665     2.8252 C.ar    
  24 C24           -3.6988     9.5835     3.2259 C.ar    
  25 C25           -2.7943     9.0940     2.3074 C.ar    
  26 Cl26          -5.8269    11.0737     3.9862 Cl      
  27 N27            0.9087     9.5513     0.7656 N.am    
  28 C28            0.8174    10.3909     1.8127 C.2     
  29 O29            0.2633    10.1520     2.8665 O.2     
  30 C30            1.5049    11.6524     1.4662 C.ar    
  31 C31            1.9937    11.4777     0.1551 C.ar    
  32 C32            1.5909    10.1142    -0.2481 C.2     
  33 O33            1.8295     9.5919    -1.3182 O.2     
  34 C34            2.6955    12.5016    -0.4606 C.ar    
  35 C35            2.9120    13.6910     0.2175 C.ar    
  36 C36            2.4329    13.8622     1.5028 C.ar    
  37 C37            1.7288    12.8471     2.1315 C.ar    
  38 H38            1.5017     1.6085     0.0314 H       
  39 H39            1.5666     4.0553    -0.2077 H       
  40 H40           -1.9920     4.3655     2.1658 H       
  41 H41           -2.0445     1.9170     2.3903 H       
  42 H42           -2.7561     5.1572     0.7015 H       
  43 H43           -3.3281     6.7852     0.2646 H       
  44 H44           -1.7746     3.6847    -0.9373 H       
  45 H45           -1.6596     4.1449    -2.6529 H       
  46 H46           -0.5621     4.8788    -1.4591 H       
  47 H47           -4.7001     5.9493    -1.6036 H       
  48 H48           -3.9957     4.8596    -2.8221 H       
  49 H49           -4.2476     4.2870    -1.1557 H       
  50 H50           -1.2081     7.1811    -1.9868 H       
  51 H51           -2.2208     6.5496    -3.3075 H       
  52 H52           -2.9251     7.6393    -2.0890 H       
  53 H53           -3.9355    10.7028    -0.4560 H       
  54 H54           -5.5453    11.5559     1.1954 H       
  55 H55           -3.6382     9.2749     4.2591 H       
  56 H56           -2.0235     8.4055     2.6210 H       
  57 H57            3.0725    12.3734    -1.4645 H       
  58 H58            3.4593    14.4894    -0.2615 H       
  59 H59            2.6081    14.7936     2.0207 H       
  60 H60            1.3566    12.9867     3.1356 H       
@<TRIPOS>BOND
   1    1    2 1
   2    2    3 ar
   3    2    7 ar
   4    3    4 ar
   5    3   38 1
   6    4    5 ar
   7    4   39 1
   8    5    6 ar
   9    5    8 1
  10    6    7 ar
  11    6   40 1
  12    7   41 1
  13    8    9 1
  14    8   12 2
  15    9   10 1
  16   10   11 2
  17   10   27 1
  18   11   12 1
  19   11   18 1
  20   12   13 1
  21   13   14 1
  22   13   42 1
  23   13   43 1
  24   14   15 1
  25   14   16 1
  26   14   17 1
  27   15   44 1
  28   15   45 1
  29   15   46 1
  30   16   47 1
  31   16   48 1
  32   16   49 1
  33   17   50 1
  34   17   51 1
  35   17   52 1
  36   18   19 2
  37   18   20 1
  38   20   21 ar
  39   20   25 ar
  40   21   22 ar
  41   21   53 1
  42   22   23 ar
  43   22   54 1
  44   23   24 ar
  45   23   26 1
  46   24   25 ar
  47   24   55 1
  48   25   56 1
  49   27   28 am
  50   27   32 am
  51   28   29 2
  52   28   30 1
  53   30   31 ar
  54   30   37 ar
  55   31   32 1
  56   31   34 ar
  57   32   33 2
  58   34   35 ar
  59   34   57 1
  60   35   36 ar
  61   35   58 1
  62   36   37 ar
  63   36   59 1
  64   37   60 1

#	End of record

