#	Name: ASD06170031
#	Creating user name:	WinNT
#	Creation time:	15. 06. 2019 21:05

#	Modifying user name:	WinNT
#	Modification time:	15. 06. 2019 21:05

#	Program:	/corina/corina34_cracker 3.40 0067  02.08.2006

@<TRIPOS>MOLECULE
ASD06170031
  67   71    0    0    0
SMALL
NO_CHARGES


@<TRIPOS>ATOM
   1 N1            -0.2884     1.4996     0.5173 N.pl3   
   2 N2            -0.2472     0.3548    -0.2841 N.am    
   3 C3             1.0439     0.0329    -0.5072 C.2     
   4 C4             1.8536     1.0388     0.1984 C.2     
   5 C5             0.9637     1.9048     0.8032 C.2     
   6 C6             3.3189     1.1082     0.2495 C.2     
   7 O7             3.8770     2.1896     0.2553 O.2     
   8 N8             4.0463    -0.0257     0.2900 N.am    
   9 C9            -1.3582    -0.3405    -0.7723 C.ar    
  10 C10           -2.4881    -0.4922     0.0211 C.ar    
  11 C11           -3.5837    -1.1789    -0.4641 C.ar    
  12 C12           -3.5566    -1.7153    -1.7384 C.ar    
  13 C13           -2.4330    -1.5664    -2.5307 C.ar    
  14 C14           -1.3362    -0.8759    -2.0536 C.ar    
  15 O15            1.4575    -0.9052    -1.1628 O.2     
  16 C16            1.3319     3.1019     1.6413 C.3     
  17 C17           -1.5120     2.1637     0.9733 C.3     
  18 C18            3.3831    -1.3262     0.1663 C.3     
  19 C19            5.4359     0.0391     0.4504 C.ar    
  20 C20            6.1712    -1.1275     0.6160 C.ar    
  21 C21            7.5427    -1.0624     0.7743 C.ar    
  22 C22            8.1848     0.1702     0.7676 C.ar    
  23 C23            7.4496     1.3341     0.6027 C.ar    
  24 C24            6.0795     1.2692     0.4383 C.ar    
  25 F25            8.2589    -2.1965     0.9358 F       
  26 O26            9.5342     0.2347     0.9233 O.3     
  27 N27           11.8719    -0.1415    -2.4537 N.ar    
  28 C28           10.5645    -0.0952    -2.5578 C.ar    
  29 C29            9.7449     0.0308    -1.4434 C.ar    
  30 C30           10.3092     0.1108    -0.1823 C.ar    
  31 C31           11.7178     0.0599    -0.0823 C.ar    
  32 C32           12.3622     0.1347     1.1616 C.ar    
  33 C33           13.7249     0.0819     1.2207 C.ar    
  34 C34           14.4868    -0.0464     0.0506 C.ar    
  35 C35           13.8852    -0.1208    -1.1725 C.ar    
  36 C36           12.4845    -0.0696    -1.2659 C.ar    
  37 O37           15.8421    -0.0969     0.1353 O.3     
  38 C38           16.5643    -0.2281    -1.0908 C.3     
  39 O39           14.3497     0.1548     2.4262 O.3     
  40 C40           13.5182     0.2852     3.5810 C.3     
  41 H41           -2.5097    -0.0738     1.0166 H       
  42 H42           -4.4624    -1.2975     0.1525 H       
  43 H43           -4.4146    -2.2519    -2.1155 H       
  44 H44           -2.4149    -1.9868    -3.5254 H       
  45 H45           -0.4608    -0.7561    -2.6745 H       
  46 H46            1.4190     2.8014     2.6855 H       
  47 H47            2.2844     3.5061     1.2988 H       
  48 H48            0.5584     3.8640     1.5459 H       
  49 H49           -1.8706     1.6804     1.8821 H       
  50 H50           -1.3010     3.2131     1.1788 H       
  51 H51           -2.2750     2.0915     0.1982 H       
  52 H52            3.4291    -1.6603    -0.8702 H       
  53 H53            3.8857    -2.0526     0.8049 H       
  54 H54            2.3410    -1.2332     0.4721 H       
  55 H55            5.6714    -2.0849     0.6214 H       
  56 H56            7.9490     2.2917     0.5983 H       
  57 H57            5.5083     2.1760     0.3047 H       
  58 H58           10.1133    -0.1567    -3.5371 H       
  59 H59            8.6719     0.0669    -1.5607 H       
  60 H60           11.7831     0.2339     2.0677 H       
  61 H61           14.4843    -0.2195    -2.0657 H       
  62 H62           16.2675    -1.1502    -1.5904 H       
  63 H63           16.3426     0.6222    -1.7358 H       
  64 H64           17.6336    -0.2562    -0.8814 H       
  65 H65           14.1414     0.3324     4.4740 H       
  66 H66           12.9270     1.1975     3.5019 H       
  67 H67           12.8519    -0.5748     3.6480 H       
@<TRIPOS>BOND
   1    1    2 1
   2    1    5 1
   3    1   17 1
   4    2    3 am
   5    2    9 1
   6    3    4 1
   7    3   15 2
   8    4    5 2
   9    4    6 1
  10    5   16 1
  11    6    7 2
  12    6    8 am
  13    8   18 1
  14    8   19 1
  15    9   10 ar
  16    9   14 ar
  17   10   11 ar
  18   10   41 1
  19   11   12 ar
  20   11   42 1
  21   12   13 ar
  22   12   43 1
  23   13   14 ar
  24   13   44 1
  25   14   45 1
  26   16   46 1
  27   16   47 1
  28   16   48 1
  29   17   49 1
  30   17   50 1
  31   17   51 1
  32   18   52 1
  33   18   53 1
  34   18   54 1
  35   19   20 ar
  36   19   24 ar
  37   20   21 ar
  38   20   55 1
  39   21   22 ar
  40   21   25 1
  41   22   23 ar
  42   22   26 1
  43   23   24 ar
  44   23   56 1
  45   24   57 1
  46   26   30 1
  47   27   28 ar
  48   27   36 ar
  49   28   29 ar
  50   28   58 1
  51   29   30 ar
  52   29   59 1
  53   30   31 ar
  54   31   32 ar
  55   31   36 ar
  56   32   33 ar
  57   32   60 1
  58   33   34 ar
  59   33   39 1
  60   34   35 ar
  61   34   37 1
  62   35   36 ar
  63   35   61 1
  64   37   38 1
  65   38   62 1
  66   38   63 1
  67   38   64 1
  68   39   40 1
  69   40   65 1
  70   40   66 1
  71   40   67 1

#	End of record

