#	Name: ASD03091330
#	Creating user name:	WinNT
#	Creation time:	15. 06. 2019 20:30

#	Modifying user name:	WinNT
#	Modification time:	15. 06. 2019 20:30

#	Program:	/corina/corina34_cracker 3.40 0067  02.08.2006

@<TRIPOS>MOLECULE
ASD03091330
  38   41    0    0    0
SMALL
NO_CHARGES


@<TRIPOS>ATOM
   1 C1             0.0662     1.4211    -0.5910 C.ar    
   2 C2             1.3423    -0.6384    -0.7120 C.ar    
   3 C3             2.5081     0.0862    -0.4917 C.ar    
   4 C4             1.2393     2.1321    -0.3713 C.ar    
   5 N5             1.4137     3.5088    -0.1771 N.am    
   6 C6             2.4529     1.4527    -0.3237 C.ar    
   7 C7             3.5552     2.4587    -0.0743 C.3     
   8 C8             2.8335     3.8124     0.0181 C.3     
   9 C9             0.1104     0.0380    -0.7620 C.ar    
  10 C10           -0.9056    -0.9897    -1.0054 C.2     
  11 C11           -0.2639    -2.1661    -1.0846 C.2     
  12 N12            1.0800    -1.9770    -0.9119 N.pl3   
  13 C13            2.0894    -3.0384    -0.9358 C.3     
  14 C14            0.4207     4.4201    -0.1708 C.2     
  15 N15            0.7032     5.7232     0.0259 N.am    
  16 O16           -0.7299     4.0667    -0.3427 O.2     
  17 C17           -0.3132     6.6811    -0.0649 C.ar    
  18 C18           -2.2354     8.5973    -0.2718 C.ar    
  19 C19           -2.5782     7.3620     0.2463 C.ar    
  20 C20           -1.6066     6.3811     0.3557 C.ar    
  21 C21           -0.0457     7.9463    -0.5704 C.ar    
  22 N22           -1.0002     8.8514    -0.6567 N.ar    
  23 H23           -0.8807     1.9393    -0.6250 H       
  24 H24            3.4595    -0.4234    -0.4516 H       
  25 H25            4.0674     2.2366     0.8619 H       
  26 H26            4.2622     2.4610    -0.9039 H       
  27 H27            3.1873     4.4833    -0.7647 H       
  28 H28            2.9927     4.2590     0.9996 H       
  29 H29           -1.9694    -0.8308    -1.1025 H       
  30 H30           -0.7383    -3.1205    -1.2589 H       
  31 H31            2.4515    -3.1725    -1.9551 H       
  32 H32            2.9216    -2.7630    -0.2879 H       
  33 H33            1.6463    -3.9693    -0.5821 H       
  34 H34            1.6110     5.9972     0.2305 H       
  35 H35           -2.9892     9.3658    -0.3593 H       
  36 H36           -3.5927     7.1633     0.5589 H       
  37 H37           -1.8460     5.4074     0.7570 H       
  38 H38            0.9545     8.1914    -0.8958 H       
@<TRIPOS>BOND
   1    1    9 ar
   2    1    4 ar
   3    1   23 1
   4    2    3 ar
   5    2    9 ar
   6    2   12 1
   7    3    6 ar
   8    3   24 1
   9    4    6 ar
  10    4    5 1
  11    5    8 1
  12    5   14 am
  13    6    7 1
  14    7    8 1
  15    7   25 1
  16    7   26 1
  17    8   27 1
  18    8   28 1
  19    9   10 1
  20   10   11 2
  21   10   29 1
  22   11   12 1
  23   11   30 1
  24   12   13 1
  25   13   31 1
  26   13   32 1
  27   13   33 1
  28   14   15 am
  29   14   16 2
  30   15   17 1
  31   15   34 1
  32   17   21 ar
  33   17   20 ar
  34   18   19 ar
  35   18   22 ar
  36   18   35 1
  37   19   20 ar
  38   19   36 1
  39   20   37 1
  40   21   22 ar
  41   21   38 1

#	End of record

