#	Name: ASD01121003
#	Creating user name:	WinNT
#	Creation time:	15. 06. 2019 18:59

#	Modifying user name:	WinNT
#	Modification time:	15. 06. 2019 18:59

#	Program:	/corina/corina34_cracker 3.40 0067  02.08.2006

@<TRIPOS>MOLECULE
ASD01121003
  35   37    0    0    0
SMALL
NO_CHARGES


@<TRIPOS>ATOM
   1 C1            -0.0148     1.3415    -0.0201 C.2     
   2 N2             0.0063    -0.0059    -0.0431 N.am    
   3 O3            -1.0771     1.9329    -0.0144 O.2     
   4 N4             1.1417     2.0332     0.0021 N.am    
   5 S5            -1.4147    -0.8559    -0.0704 S.o2    
   6 O6            -1.0590    -2.2305    -0.1255 O.2     
   7 O7            -2.2316    -0.3049     0.9536 O.2     
   8 C8            -2.2138    -0.4871    -1.5968 C.ar    
   9 H9             0.8538    -0.4778    -0.0436 H       
  10 H10            1.9862     1.5636     0.0860 H       
  11 C11            1.1241     3.4280    -0.0958 C.ar    
  12 C12           -1.9657    -1.2646    -2.7120 C.ar    
  13 C13           -2.5936    -0.9751    -3.9106 C.ar    
  14 C14           -3.4696     0.0925    -3.9917 C.ar    
  15 C15           -3.7170     0.8695    -2.8754 C.ar    
  16 C16           -3.0934     0.5767    -1.6772 C.ar    
  17 Cl17          -2.2820    -1.9510    -5.3121 Cl      
  18 C18            0.1614     4.0601    -0.8611 C.ar    
  19 C19            0.1428     5.4447    -0.9592 C.ar    
  20 C20            1.0795     6.2099    -0.2983 C.ar    
  21 C21            2.0586     5.5964     0.4783 C.ar    
  22 C22            2.0788     4.1955     0.5859 C.ar    
  23 Br23          -1.1816     6.2901    -2.0114 Br      
  24 N24            3.1022     6.0772     1.2371 N.pl3   
  25 C25            3.7790     5.0342     1.8113 C.2     
  26 C26            3.2101     3.8711     1.4577 C.2     
  27 H27           -1.2814    -2.0977    -2.6482 H       
  28 H28           -3.9597     0.3191    -4.9270 H       
  29 H29           -4.4008     1.7031    -2.9386 H       
  30 H30           -3.2873     1.1838    -0.8053 H       
  31 H31           -0.5790     3.4740    -1.3851 H       
  32 H32            1.0541     7.2863    -0.3833 H       
  33 H33            3.3249     7.0147     1.3483 H       
  34 H34            4.6401     5.1331     2.4556 H       
  35 H35            3.5267     2.8833     1.7586 H       
@<TRIPOS>BOND
   1    1    2 am
   2    1    4 am
   3    1    3 2
   4    2    5 am
   5    2    9 1
   6    4   10 1
   7    4   11 1
   8    5    7 2
   9    5    8 1
  10    5    6 2
  11    8   12 ar
  12    8   16 ar
  13   11   18 ar
  14   11   22 ar
  15   12   13 ar
  16   12   27 1
  17   13   14 ar
  18   13   17 1
  19   14   15 ar
  20   14   28 1
  21   15   16 ar
  22   15   29 1
  23   16   30 1
  24   18   19 ar
  25   18   31 1
  26   19   20 ar
  27   19   23 1
  28   20   21 ar
  29   20   32 1
  30   21   22 ar
  31   21   24 1
  32   22   26 1
  33   24   25 1
  34   24   33 1
  35   25   26 2
  36   25   34 1
  37   26   35 1

#	End of record

