#	Name: ASD02030484
#	Creating user name:	WinNT
#	Creation time:	15. 06. 2019 20:15

#	Modifying user name:	WinNT
#	Modification time:	15. 06. 2019 20:15

#	Program:	/corina/corina34_cracker 3.40 0067  02.08.2006

@<TRIPOS>MOLECULE
ASD02030484
  59   62    0    0    0
SMALL
NO_CHARGES


@<TRIPOS>ATOM
   1 N1            -0.2116     1.4220    -0.1401 N.am    
   2 C2            -0.0215    -0.0115     0.1219 C.3     
   3 C3            -0.9185    -0.4180     1.2977 C.3     
   4 N4            -2.2774     0.0820     1.0465 N.am    
   5 C5            -2.4675     1.5156     0.7845 C.3     
   6 C6            -1.5712     1.9230    -0.3858 C.3     
   7 C7             0.8414     2.2632    -0.1493 C.2     
   8 C8             2.1838     1.7711     0.2267 C.2     
   9 N9             3.2626     2.5081     0.3818 N.2     
  10 N10            2.5163     0.4913     0.4764 N.2     
  11 C11            3.7906     0.4714     0.7738 C.2     
  12 N12            4.2438     1.7403     0.7105 N.pl3   
  13 O13            0.6874     3.4264    -0.4669 O.2     
  14 C14           -3.3304    -0.7591     1.0557 C.2     
  15 C15           -4.7026    -0.2274     0.9117 C.ar    
  16 O16           -3.1521    -1.9548     1.1825 O.2     
  17 C17           -1.5443     3.4481    -0.5054 C.3     
  18 C18           -2.1092     1.3123    -1.6814 C.3     
  19 C19            5.5595     2.1537     0.9596 C.ar    
  20 C20            5.8972     3.4963     0.8599 C.ar    
  21 C21            7.1960     3.9009     1.1068 C.ar    
  22 C22            8.1582     2.9685     1.4525 C.ar    
  23 C23            7.8237     1.6304     1.5524 C.ar    
  24 C24            6.5266     1.2214     1.3124 C.ar    
  25 Cl25           7.6200     5.5797     0.9825 Cl      
  26 C26           -5.6731    -0.9684     0.2375 C.ar    
  27 C27           -6.9564    -0.4642     0.1069 C.ar    
  28 C28           -7.2740     0.7751     0.6455 C.ar    
  29 C29           -6.3128     1.5109     1.3142 C.ar    
  30 C30           -5.0329     1.0154     1.4550 C.ar    
  31 O31           -7.9051    -1.1829    -0.5492 O.3     
  32 C32           -8.6712     1.3210     0.5006 C.3     
  33 C33           -7.5087    -2.4497    -1.0786 C.3     
  34 H34           -0.2968    -0.5848    -0.7634 H       
  35 H35            1.0215    -0.2021     0.3745 H       
  36 H36           -0.9385    -1.5044     1.3840 H       
  37 H37           -0.5329     0.0176     2.2195 H       
  38 H38           -3.5105     1.7062     0.5319 H       
  39 H39           -2.1922     2.0889     1.6698 H       
  40 H40            4.3731    -0.4021     1.0270 H       
  41 H41           -1.0482     3.8723     0.3676 H       
  42 H42           -1.0006     3.7324    -1.4062 H       
  43 H43           -2.5651     3.8261    -0.5626 H       
  44 H44           -3.1226     1.6719    -1.8592 H       
  45 H45           -1.4688     1.6040    -2.5138 H       
  46 H46           -2.1192     0.2258    -1.5941 H       
  47 H47            5.1464     4.2240     0.5894 H       
  48 H48            9.1724     3.2863     1.6443 H       
  49 H49            8.5768     0.9049     1.8220 H       
  50 H50            6.2663     0.1762     1.3910 H       
  51 H51           -5.4246    -1.9322    -0.1817 H       
  52 H52           -6.5658     2.4746     1.7308 H       
  53 H53           -4.2847     1.5924     1.9782 H       
  54 H54           -9.2763     1.0001     1.3485 H       
  55 H55           -8.6346     2.4100     0.4717 H       
  56 H56           -9.1131     0.9476    -0.4232 H       
  57 H57           -6.7009    -2.3069    -1.7963 H       
  58 H58           -7.1646    -3.0909    -0.2671 H       
  59 H59           -8.3583    -2.9175    -1.5760 H       
@<TRIPOS>BOND
   1    1    2 1
   2    1    7 am
   3    1    6 1
   4    2    3 1
   5    2   34 1
   6    2   35 1
   7    3    4 1
   8    3   36 1
   9    3   37 1
  10    4    5 1
  11    4   14 am
  12    5    6 1
  13    5   38 1
  14    5   39 1
  15    6   17 1
  16    6   18 1
  17    7    8 1
  18    7   13 2
  19    8    9 2
  20    8   10 1
  21    9   12 1
  22   10   11 2
  23   11   12 1
  24   11   40 1
  25   12   19 1
  26   14   15 1
  27   14   16 2
  28   15   26 ar
  29   15   30 ar
  30   17   41 1
  31   17   42 1
  32   17   43 1
  33   18   44 1
  34   18   45 1
  35   18   46 1
  36   19   20 ar
  37   19   24 ar
  38   20   21 ar
  39   20   47 1
  40   21   22 ar
  41   21   25 1
  42   22   23 ar
  43   22   48 1
  44   23   24 ar
  45   23   49 1
  46   24   50 1
  47   26   27 ar
  48   26   51 1
  49   27   28 ar
  50   27   31 1
  51   28   29 ar
  52   28   32 1
  53   29   30 ar
  54   29   52 1
  55   30   53 1
  56   31   33 1
  57   32   54 1
  58   32   55 1
  59   32   56 1
  60   33   57 1
  61   33   58 1
  62   33   59 1

#	End of record

