#	Name: ASD02500195
#	Creating user name:	WinNT
#	Creation time:	15. 06. 2019 20:22

#	Modifying user name:	WinNT
#	Modification time:	15. 06. 2019 20:22

#	Program:	/corina/corina34_cracker 3.40 0067  02.08.2006

@<TRIPOS>MOLECULE
ASD02500195
  62   66    0    0    0
SMALL
NO_CHARGES


@<TRIPOS>ATOM
   1 N1            -5.1232     4.9619     0.7226 N.ar    
   2 C2            -6.3304     5.4424     0.5492 C.ar    
   3 C3            -7.4003     5.0428     1.3473 C.ar    
   4 C4            -7.2044     4.1267     2.3411 C.ar    
   5 C5            -5.9068     3.6125     2.5242 C.ar    
   6 C6            -5.6289     2.6683     3.5253 C.ar    
   7 C7            -4.3603     2.1953     3.6707 C.ar    
   8 C8            -3.3332     2.6363     2.8390 C.ar    
   9 C9            -3.5672     3.5507     1.8584 C.ar    
  10 C10           -4.8637     4.0626     1.6771 C.ar    
  11 S11           -2.2497     4.0917     0.8211 S.o2    
  12 O12           -2.2845     5.5122     0.8360 O.2     
  13 O13           -1.1058     3.3383     1.1994 O.2     
  14 N14           -2.6225     3.6311    -0.7253 N.am    
  15 C15           -2.6498     2.2821    -1.0614 C.ar    
  16 C16           -2.2698     1.8764    -2.3381 C.ar    
  17 C17           -2.2957     0.5424    -2.6737 C.ar    
  18 C18           -2.7041    -0.4063    -1.7314 C.ar    
  19 C19           -3.0849     0.0041    -0.4506 C.ar    
  20 C20           -3.0514     1.3395    -0.1192 C.ar    
  21 C21           -1.8302     2.8997    -3.3533 C.3     
  22 C22           -2.7334    -1.8374    -2.0881 C.2     
  23 O23           -3.1693    -2.1858    -3.1685 O.2     
  24 N24           -2.2772    -2.7587    -1.2166 N.am    
  25 C25           -2.2104    -4.1773    -1.5945 C.3     
  26 C26           -0.7749    -4.6739    -1.3825 C.3     
  27 N27           -0.3347    -4.2778    -0.0375 N.am    
  28 C28           -0.4015    -2.8591     0.3404 C.3     
  29 C29           -1.8317    -2.3618     0.1265 C.3     
  30 C30            0.1215    -5.1991     0.8340 C.2     
  31 C31            0.6644    -4.7736     2.1452 C.ar    
  32 C32            0.4836    -5.5599     3.2870 C.ar    
  33 C33            1.0071    -5.1253     4.4894 C.ar    
  34 N34            1.6679    -3.9875     4.5680 N.ar    
  35 C35            1.8608    -3.2165     3.5165 C.ar    
  36 C36            1.3766    -3.5773     2.2739 C.ar    
  37 O37            0.0877    -6.3787     0.5443 O.2     
  38 H38           -6.5001     6.1676    -0.2329 H       
  39 H39           -8.3835     5.4573     1.1804 H       
  40 H40           -8.0223     3.8059     2.9694 H       
  41 H41           -6.4166     2.3194     4.1765 H       
  42 H42           -4.1474     1.4689     4.4411 H       
  43 H43           -2.3352     2.2465     2.9748 H       
  44 H44           -2.8219     4.3023    -1.3965 H       
  45 H45           -2.0012     0.2283    -3.6642 H       
  46 H46           -3.4008    -0.7263     0.2795 H       
  47 H47           -3.3410     1.6568     0.8717 H       
  48 H48           -0.7529     3.0472    -3.2775 H       
  49 H49           -2.0792     2.5482    -4.3546 H       
  50 H50           -2.3406     3.8437    -3.1622 H       
  51 H51           -2.8930    -4.7546    -0.9709 H       
  52 H52           -2.4853    -4.2899    -2.6433 H       
  53 H53           -0.7466    -5.7599    -1.4717 H       
  54 H54           -0.1188    -4.2259    -2.1289 H       
  55 H55           -0.1266    -2.7466     1.3892 H       
  56 H56            0.2811    -2.2819    -0.2832 H       
  57 H57           -1.8567    -1.2756     0.2140 H       
  58 H58           -2.4868    -2.8067     0.8755 H       
  59 H59           -0.0574    -6.4929     3.2300 H       
  60 H60            0.8727    -5.7257     5.3770 H       
  61 H61            2.4083    -2.2922     3.6269 H       
  62 H62            1.5424    -2.9430     1.4157 H       
@<TRIPOS>BOND
   1    1    2 ar
   2    1   10 ar
   3    2    3 ar
   4    2   38 1
   5    3    4 ar
   6    3   39 1
   7    4    5 ar
   8    4   40 1
   9    5    6 ar
  10    5   10 ar
  11    6    7 ar
  12    6   41 1
  13    7    8 ar
  14    7   42 1
  15    8    9 ar
  16    8   43 1
  17    9   10 ar
  18    9   11 1
  19   11   12 2
  20   11   13 2
  21   11   14 am
  22   14   15 1
  23   14   44 1
  24   15   16 ar
  25   15   20 ar
  26   16   17 ar
  27   16   21 1
  28   17   18 ar
  29   17   45 1
  30   18   19 ar
  31   18   22 1
  32   19   20 ar
  33   19   46 1
  34   20   47 1
  35   21   48 1
  36   21   49 1
  37   21   50 1
  38   22   23 2
  39   22   24 am
  40   24   25 1
  41   24   29 1
  42   25   26 1
  43   25   51 1
  44   25   52 1
  45   26   27 1
  46   26   53 1
  47   26   54 1
  48   27   28 1
  49   27   30 am
  50   28   29 1
  51   28   55 1
  52   28   56 1
  53   29   57 1
  54   29   58 1
  55   30   31 1
  56   30   37 2
  57   31   32 ar
  58   31   36 ar
  59   32   33 ar
  60   32   59 1
  61   33   34 ar
  62   33   60 1
  63   34   35 ar
  64   35   36 ar
  65   35   61 1
  66   36   62 1

#	End of record

