#	Name: ASD07931844
#	Creating user name:	WinNT
#	Creation time:	15. 06. 2019 21:13

#	Modifying user name:	WinNT
#	Modification time:	15. 06. 2019 21:13

#	Program:	/corina/corina34_cracker 3.40 0067  02.08.2006

@<TRIPOS>MOLECULE
ASD07931844
  68   71    0    0    0
SMALL
NO_CHARGES


@<TRIPOS>ATOM
   1 Si1            0.5153     1.9794    -0.1929 Si      
   2 C2             0.8555     0.1520    -0.3776 C.ar    
   3 C3             0.8874    -0.4215    -1.6350 C.ar    
   4 C4             1.1391    -1.7738    -1.7717 C.ar    
   5 C5             1.3594    -2.5526    -0.6511 C.ar    
   6 C6             1.3284    -1.9790     0.6063 C.ar    
   7 C7             1.0810    -0.6258     0.7427 C.ar    
   8 C8             2.1301     2.8958     0.0126 C.ar    
   9 C9             2.7601     3.4419    -1.0900 C.ar    
  10 C10            3.9551     4.1199    -0.9380 C.ar    
  11 C11            4.5198     4.2523     0.3168 C.ar    
  12 C12            3.8894     3.7069     1.4195 C.ar    
  13 C13            2.6922     3.0326     1.2681 C.ar    
  14 O14           -0.2547     2.5262    -1.5227 O.3     
  15 C15           -0.5315     3.9280    -1.4989 C.3     
  16 O16           -2.4149     3.7531    -3.0440 O.3     
  17 C17           -1.1171     4.3551    -2.8463 C.3     
  18 C18           -1.3818     5.8770    -2.8594 C.3     
  19 C19           -2.6938     6.0230    -3.6624 C.3     
  20 C20           -3.0666     4.5720    -4.0393 C.3     
  21 C21           -4.5603     4.3816    -3.9793 C.ar    
  22 C22           -5.3001     4.3467    -5.1465 C.ar    
  23 C23           -6.6702     4.1721    -5.0914 C.ar    
  24 C24           -7.3006     4.0320    -3.8691 C.ar    
  25 C25           -6.5607     4.0661    -2.7020 C.ar    
  26 C26           -5.1900     4.2364    -2.7573 C.ar    
  27 C27           -8.7944     3.8427    -3.8090 C.3     
  28 F28           -9.0937     2.4769    -3.8561 F       
  29 F29           -9.2859     4.3870    -2.6176 F       
  30 F30           -9.3905     4.4885    -4.8975 F       
  31 C31           -0.2391     6.6138    -3.5610 C.3     
  32 C32           -0.5550     2.2635     1.3053 C.3     
  33 C33           -0.0707     1.3760     2.4537 C.3     
  34 C34           -0.4668     3.7325     1.7239 C.3     
  35 C35           -2.0063     1.9154     0.9687 C.3     
  36 H36            0.7153     0.1869    -2.5106 H       
  37 H37            1.1633    -2.2220    -2.7540 H       
  38 H38            1.5553    -3.6093    -0.7578 H       
  39 H39            1.5002    -2.5875     1.4818 H       
  40 H40            1.0604    -0.1769     1.7248 H       
  41 H41            2.3188     3.3385    -2.0703 H       
  42 H42            4.4476     4.5460    -1.7995 H       
  43 H43            5.4538     4.7814     0.4355 H       
  44 H44            4.3308     3.8100     2.3998 H       
  45 H45            2.1978     2.6097     2.1301 H       
  46 H46           -1.2484     4.1433    -0.7065 H       
  47 H47            0.3913     4.4775    -1.3132 H       
  48 H48           -0.4436     4.0801    -3.6580 H       
  49 H49           -1.5119     6.2508    -1.8438 H       
  50 H50           -3.4725     6.4690    -3.0437 H       
  51 H51           -2.5283     6.6201    -4.5591 H       
  52 H52           -2.6921     4.3302    -5.0340 H       
  53 H53           -4.8076     4.4561    -6.1014 H       
  54 H54           -7.2483     4.1455    -6.0033 H       
  55 H55           -7.0532     3.9571    -1.7470 H       
  56 H56           -4.6114     4.2593    -1.8456 H       
  57 H57           -0.1555     6.2602    -4.5887 H       
  58 H58           -0.4429     7.6846    -3.5607 H       
  59 H59            0.6952     6.4216    -3.0335 H       
  60 H60            1.0163     1.4248     2.5171 H       
  61 H61           -0.5053     1.7247     3.3905 H       
  62 H62           -0.3783     0.3463     2.2716 H       
  63 H63           -0.9317     4.3564     0.9606 H       
  64 H64           -0.9855     3.8718     2.6724 H       
  65 H65            0.5796     4.0159     1.8370 H       
  66 H66           -2.0691     0.8689     0.6705 H       
  67 H67           -2.6325     2.0816     1.8453 H       
  68 H68           -2.3513     2.5477     0.1506 H       
@<TRIPOS>BOND
   1    1    2 1
   2    1    8 1
   3    1   14 1
   4    1   32 1
   5    2    3 ar
   6    2    7 ar
   7    3    4 ar
   8    3   36 1
   9    4    5 ar
  10    4   37 1
  11    5    6 ar
  12    5   38 1
  13    6    7 ar
  14    6   39 1
  15    7   40 1
  16    8    9 ar
  17    8   13 ar
  18    9   10 ar
  19    9   41 1
  20   10   11 ar
  21   10   42 1
  22   11   12 ar
  23   11   43 1
  24   12   13 ar
  25   12   44 1
  26   13   45 1
  27   14   15 1
  28   15   17 1
  29   15   46 1
  30   15   47 1
  31   16   17 1
  32   16   20 1
  33   17   18 1
  34   17   48 1
  35   18   19 1
  36   18   31 1
  37   18   49 1
  38   19   20 1
  39   19   50 1
  40   19   51 1
  41   20   21 1
  42   20   52 1
  43   21   22 ar
  44   21   26 ar
  45   22   23 ar
  46   22   53 1
  47   23   24 ar
  48   23   54 1
  49   24   25 ar
  50   24   27 1
  51   25   26 ar
  52   25   55 1
  53   26   56 1
  54   27   28 1
  55   27   29 1
  56   27   30 1
  57   31   57 1
  58   31   58 1
  59   31   59 1
  60   32   33 1
  61   32   35 1
  62   32   34 1
  63   33   60 1
  64   33   61 1
  65   33   62 1
  66   34   63 1
  67   34   64 1
  68   34   65 1
  69   35   66 1
  70   35   67 1
  71   35   68 1

#	End of record

