#	Name: ASD09750003
#	Creating user name:	WinNT
#	Creation time:	15. 06. 2019 21:23

#	Modifying user name:	WinNT
#	Modification time:	15. 06. 2019 21:23

#	Program:	/corina/corina34_cracker 3.40 0067  02.08.2006

@<TRIPOS>MOLECULE
ASD09750003
  53   56    0    0    0
SMALL
NO_CHARGES


@<TRIPOS>ATOM
   1 C1            -0.0169     1.3939     0.0097 C.ar    
   2 C2             0.0021    -0.0041     0.0020 C.ar    
   3 C3            -1.1866    -0.7072     0.0096 C.ar    
   4 C4            -2.4014    -0.0125     0.0249 C.ar    
   5 C5            -2.4054     1.3886     0.0325 C.ar    
   6 C6            -1.2265     2.0782     0.0300 C.ar    
   7 N7             1.3092     1.8085    -0.0007 N.am    
   8 C8             2.0819     0.7049    -0.0140 C.2     
   9 O9             1.3025    -0.3880    -0.0125 O.3     
  10 O10            3.2977     0.6996    -0.0263 O.2     
  11 C11           -3.6708    -0.7514     0.0326 C.2     
  12 O12           -3.6665    -1.9643     0.0256 O.2     
  13 C13           -4.9784    -0.0025     0.0491 C.3     
  14 C14           -6.1378    -1.0008     0.0542 C.3     
  15 N15           -7.4125    -0.2708     0.0703 N.3     
  16 C16           -8.5427    -1.1799    -0.1624 C.3     
  17 C17           -9.8568    -0.4183     0.0410 C.3     
  18 N18           -9.8381     0.7813    -0.8098 N.am    
  19 C19           -8.6698     1.6715    -0.7320 C.3     
  20 C20           -7.4025     0.8276    -0.9050 C.3     
  21 C21          -10.8644     1.0578    -1.6384 C.2     
  22 O22          -11.8220     0.3115    -1.6896 O.2     
  23 O23          -10.8288     2.1609    -2.4095 O.3     
  24 C24          -11.9687     2.3954    -3.2777 C.3     
  25 C25          -11.7525     3.6662    -4.0585 C.ar    
  26 C26          -11.1194     3.6232    -5.2864 C.ar    
  27 C27          -10.9202     4.7896    -6.0035 C.ar    
  28 C28          -11.3552     5.9988    -5.4915 C.ar    
  29 C29          -11.9891     6.0411    -4.2627 C.ar    
  30 C30          -12.1924     4.8734    -3.5489 C.ar    
  31 Cl31         -12.5353     7.5581    -3.6193 Cl      
  32 Cl32         -10.1241     4.7357    -7.5452 Cl      
  33 H33           -1.1787    -1.7872     0.0034 H       
  34 H34           -3.3429     1.9246     0.0440 H       
  35 H35           -1.2343     3.1582     0.0358 H       
  36 H36            1.6221     2.7267     0.0007 H       
  37 H37           -5.0300     0.6189     0.9432 H       
  38 H38           -5.0467     0.6290    -0.8367 H       
  39 H39           -6.0862    -1.6222    -0.8398 H       
  40 H40           -6.0696    -1.6323     0.9400 H       
  41 H41           -8.4980    -1.5621    -1.1822 H       
  42 H42           -8.4916    -2.0113     0.5406 H       
  43 H43          -10.6960    -1.0541    -0.2410 H       
  44 H44           -9.9516    -0.1243     1.0863 H       
  45 H45           -8.7242     2.4172    -1.5251 H       
  46 H46           -8.6505     2.1663     0.2390 H       
  47 H47           -6.5244     1.4521    -0.7405 H       
  48 H48           -7.3736     0.4173    -1.9145 H       
  49 H49          -12.0779     1.5590    -3.9680 H       
  50 H50          -12.8717     2.4889    -2.6744 H       
  51 H51          -10.7799     2.6791    -5.6861 H       
  52 H52          -11.1996     6.9096    -6.0507 H       
  53 H53          -12.6873     4.9062    -2.5895 H       
@<TRIPOS>BOND
   1    1    2 ar
   2    1    7 1
   3    1    6 ar
   4    2    3 ar
   5    2    9 1
   6    3    4 ar
   7    3   33 1
   8    4    5 ar
   9    4   11 1
  10    5    6 ar
  11    5   34 1
  12    6   35 1
  13    7    8 am
  14    7   36 1
  15    8    9 1
  16    8   10 2
  17   11   12 2
  18   11   13 1
  19   13   14 1
  20   13   37 1
  21   13   38 1
  22   14   15 1
  23   14   39 1
  24   14   40 1
  25   15   16 1
  26   15   20 1
  27   16   17 1
  28   16   41 1
  29   16   42 1
  30   17   18 1
  31   17   43 1
  32   17   44 1
  33   18   19 1
  34   18   21 am
  35   19   20 1
  36   19   45 1
  37   19   46 1
  38   20   47 1
  39   20   48 1
  40   21   22 2
  41   21   23 1
  42   23   24 1
  43   24   25 1
  44   24   49 1
  45   24   50 1
  46   25   26 ar
  47   25   30 ar
  48   26   27 ar
  49   26   51 1
  50   27   28 ar
  51   27   32 1
  52   28   29 ar
  53   28   52 1
  54   29   30 ar
  55   29   31 1
  56   30   53 1

#	End of record

