#	Name: ASD01120333
#	Creating user name:	WinNT
#	Creation time:	15. 06. 2019 18:59

#	Modifying user name:	WinNT
#	Modification time:	15. 06. 2019 18:59

#	Program:	/corina/corina34_cracker 3.40 0067  02.08.2006

@<TRIPOS>MOLECULE
ASD01120333
  33   35    0    0    0
SMALL
NO_CHARGES


@<TRIPOS>ATOM
   1 N1            -0.0169     1.3927     0.0097 N.pl3   
   2 C2             0.0021    -0.0041     0.0020 C.ar    
   3 C3             1.2149    -0.6827    -0.0132 C.ar    
   4 C4             1.2381    -2.0648    -0.0204 C.ar    
   5 C5             0.0574    -2.7793    -0.0125 C.ar    
   6 C6            -1.1651    -2.1070     0.0028 C.ar    
   7 C7            -1.1893    -0.7140     0.0154 C.ar    
   8 C8            -2.4336    -2.8722     0.0109 C.ar    
   9 C9            -3.4211    -2.5789     0.9395 C.ar    
  10 C10           -4.6086    -3.2941     0.9481 C.ar    
  11 C11           -4.8300    -4.3053     0.0387 C.ar    
  12 C12           -3.8580    -4.6231    -0.9063 C.ar    
  13 C13           -2.6495    -3.9017    -0.9303 C.ar    
  14 C14           -1.8679    -4.4364    -1.9780 C.2     
  15 C15           -2.5821    -5.4391    -2.5579 C.2     
  16 N16           -3.7988    -5.5575    -1.9135 N.pl3   
  17 C17           -2.1337    -6.2605    -3.6895 C.2     
  18 O18           -1.0404    -6.0676    -4.1851 O.2     
  19 O19           -2.9346    -7.2288    -4.1789 O.3     
  20 N20           -6.1051    -5.0566     0.0668 N.pl3   
  21 O21           -6.9566    -4.7805     0.8928 O.2     
  22 O22           -6.3029    -5.9509    -0.7362 O.2     
  23 H23            0.8165     1.8891     0.0044 H       
  24 H24           -0.8634     1.8663     0.0163 H       
  25 H25            2.1419    -0.1286    -0.0198 H       
  26 H26            2.1833    -2.5872    -0.0326 H       
  27 H27            0.0797    -3.8591    -0.0184 H       
  28 H28           -2.1328    -0.1887     0.0272 H       
  29 H29           -3.2640    -1.7896     1.6598 H       
  30 H30           -5.3694    -3.0560     1.6767 H       
  31 H31           -0.8806    -4.1081    -2.2674 H       
  32 H32           -4.4943    -6.1972    -2.1325 H       
  33 H33           -2.5961    -7.7434    -4.9244 H       
@<TRIPOS>BOND
   1    1    2 1
   2    1   23 1
   3    1   24 1
   4    2    3 ar
   5    2    7 ar
   6    3    4 ar
   7    3   25 1
   8    4    5 ar
   9    4   26 1
  10    5    6 ar
  11    5   27 1
  12    6    7 ar
  13    6    8 1
  14    7   28 1
  15    8    9 ar
  16    8   13 ar
  17    9   10 ar
  18    9   29 1
  19   10   11 ar
  20   10   30 1
  21   11   12 ar
  22   11   20 1
  23   12   13 ar
  24   12   16 1
  25   13   14 1
  26   14   15 2
  27   14   31 1
  28   15   16 1
  29   15   17 1
  30   16   32 1
  31   17   18 2
  32   17   19 1
  33   19   33 1
  34   20   21 2
  35   20   22 2

#	End of record

