#	Name: ASD01890396
#	Creating user name:	WinNT
#	Creation time:	15. 06. 2019 19:50

#	Modifying user name:	WinNT
#	Modification time:	15. 06. 2019 19:50

#	Program:	/corina/corina34_cracker 3.40 0067  02.08.2006

@<TRIPOS>MOLECULE
ASD01890396
  54   56    0    0    0
SMALL
NO_CHARGES


@<TRIPOS>ATOM
   1 C1            -0.0184     1.5028     0.0103 C.2     
   2 C2             0.0021    -0.0041     0.0020 C.3     
   3 C3            -0.2550    -0.5098    -1.4189 C.3     
   4 C4            -0.2343    -2.0396    -1.4273 C.3     
   5 C5            -0.3648    -2.5360    -2.8442 C.2     
   6 O6             1.0197     2.1211     0.0037 O.2     
   7 O7            -1.1898     2.1580     0.0194 O.3     
   8 C8            -1.6014    -0.0231    -1.8894 C.ar    
   9 C9            -1.6932     0.7767    -3.0132 C.ar    
  10 C10           -2.9282     1.2232    -3.4447 C.ar    
  11 C11           -4.0715     0.8695    -2.7528 C.ar    
  12 C12           -3.9798     0.0690    -1.6296 C.ar    
  13 C13           -2.7452    -0.3810    -1.2005 C.ar    
  14 O14           -0.4646    -1.7441    -3.7574 O.2     
  15 N15            1.3109    -0.4772     0.4594 N.pl3   
  16 O16            1.3918    -1.1819     1.4496 O.2     
  17 O17            2.3183    -0.1659    -0.1505 O.2     
  18 C18           -0.4917    -4.4320    -4.4274 C.ar    
  19 C19           -0.3712    -3.9795    -3.1194 C.ar    
  20 C20           -0.2545    -4.8954    -2.0550 C.ar    
  21 C21           -0.2575    -6.2319    -2.2855 C.ar    
  22 C22           -0.3786    -6.7208    -3.6004 C.ar    
  23 C23           -0.3833    -8.0996    -3.8594 C.ar    
  24 C24           -0.5029    -8.5477    -5.1560 C.ar    
  25 C25           -0.6192    -7.6435    -6.2174 C.ar    
  26 C26           -0.6171    -6.3028    -5.9952 C.ar    
  27 C27           -0.4975    -5.8097    -4.6821 C.ar    
  28 O28           -0.5075    -9.8822    -5.4074 O.3     
  29 C29           -0.6344   -10.2848    -6.7727 C.3     
  30 C30           -1.1335     3.6089     0.0270 C.3     
  31 C31           -2.5551     4.1744     0.0369 C.3     
  32 H32           -0.7738    -0.3816     0.6680 H       
  33 H33            0.5209    -0.1322    -2.0849 H       
  34 H34            0.7060    -2.3926    -1.0039 H       
  35 H35           -1.0654    -2.4175    -0.8319 H       
  36 H36           -0.8000     1.0530    -3.5538 H       
  37 H37           -2.9999     1.8486    -4.3223 H       
  38 H38           -5.0363     1.2190    -3.0896 H       
  39 H39           -4.8730    -0.2070    -1.0888 H       
  40 H40           -2.6739    -1.0095    -0.3251 H       
  41 H41           -0.5851    -3.7277    -5.2407 H       
  42 H42           -0.1611    -4.5288    -1.0434 H       
  43 H43           -0.1666    -6.9219    -1.4597 H       
  44 H44           -0.2933    -8.8053    -3.0468 H       
  45 H45           -0.7116    -8.0160    -7.2269 H       
  46 H46           -0.7070    -5.6169    -6.8245 H       
  47 H47           -1.5737    -9.9074    -7.1769 H       
  48 H48            0.1977    -9.8810    -7.3494 H       
  49 H49           -0.6241   -11.3731    -6.8330 H       
  50 H50           -0.6017     3.9472     0.9164 H       
  51 H51           -0.6102     3.9569    -0.8636 H       
  52 H52           -3.0869     3.8361    -0.8525 H       
  53 H53           -3.0784     3.8265     0.9275 H       
  54 H54           -2.5128     5.2636     0.0426 H       
@<TRIPOS>BOND
   1    1    2 1
   2    1    6 2
   3    1    7 1
   4    2    3 1
   5    2   15 1
   6    2   32 1
   7    3    4 1
   8    3    8 1
   9    3   33 1
  10    4    5 1
  11    4   34 1
  12    4   35 1
  13    5   14 2
  14    5   19 1
  15    7   30 1
  16    8    9 ar
  17    8   13 ar
  18    9   10 ar
  19    9   36 1
  20   10   11 ar
  21   10   37 1
  22   11   12 ar
  23   11   38 1
  24   12   13 ar
  25   12   39 1
  26   13   40 1
  27   15   16 2
  28   15   17 2
  29   18   19 ar
  30   18   27 ar
  31   18   41 1
  32   19   20 ar
  33   20   21 ar
  34   20   42 1
  35   21   22 ar
  36   21   43 1
  37   22   23 ar
  38   22   27 ar
  39   23   24 ar
  40   23   44 1
  41   24   25 ar
  42   24   28 1
  43   25   26 ar
  44   25   45 1
  45   26   27 ar
  46   26   46 1
  47   28   29 1
  48   29   47 1
  49   29   48 1
  50   29   49 1
  51   30   31 1
  52   30   50 1
  53   30   51 1
  54   31   52 1
  55   31   53 1
  56   31   54 1

#	End of record

