#	Name: ASD09380005
#	Creating user name:	WinNT
#	Creation time:	15. 06. 2019 21:21

#	Modifying user name:	WinNT
#	Modification time:	15. 06. 2019 21:21

#	Program:	/corina/corina34_cracker 3.40 0067  02.08.2006

@<TRIPOS>MOLECULE
ASD09380005
  53   52    0    0    0
SMALL
NO_CHARGES


@<TRIPOS>ATOM
   1 C1            -2.4128    -2.2759    -2.2688 C.3     
   2 C2            -2.3738    -3.7622    -2.0231 C.2     
   3 C3            -0.9121    -0.4573    -3.8219 C.3     
   4 C4            -0.4287    -0.8652    -2.4541 C.2     
   5 C5            -1.1698    -1.6402    -1.7016 C.2     
   6 C6            -0.8471     1.0427    -3.9510 C.2     
   7 C7            -0.2221     1.5863    -4.9658 C.2     
   8 C8             0.2680     0.7226    -6.0993 C.3     
   9 C9             2.0423     1.1238    -8.2581 C.3     
  10 C10            0.5981     1.5374    -8.3771 C.2     
  11 C11           -0.2411     1.2729    -7.4067 C.2     
  12 C12            2.4326     0.3092    -9.4645 C.2     
  13 C13            3.3506     0.7542   -10.2862 C.2     
  14 C14            3.8777     2.1583   -10.1382 C.3     
  15 C15            5.7243     3.7324   -11.5811 C.3     
  16 C16            6.2084     2.7766   -10.5213 C.2     
  17 C17            5.3444     2.1108    -9.7957 C.2     
  18 C18            6.3605     5.1059   -11.3581 C.3     
  19 C19           -3.3658    -4.3496    -1.4010 C.2     
  20 C20           -4.5460    -3.5389    -0.9309 C.3     
  21 C21            5.8764     6.0617   -12.4179 C.2     
  22 O22            5.1020     5.6832   -13.2646 O.2     
  23 O23            6.3055     7.3336   -12.4212 O.3     
  24 H24           -2.4611    -2.0860    -3.3410 H       
  25 H25           -3.2919    -1.8506    -1.7845 H       
  26 H26           -1.5280    -4.3432    -2.3600 H       
  27 H27           -0.2795    -0.9152    -4.5823 H       
  28 H28           -1.9414    -0.7894    -3.9574 H       
  29 H29            0.5288    -0.5187    -2.0942 H       
  30 H30           -0.8900    -1.8234    -0.6747 H       
  31 H31           -1.3157     1.6696    -3.2068 H       
  32 H32           -0.0580     2.6535    -4.9902 H       
  33 H33            1.3579     0.7173    -6.1072 H       
  34 H34           -0.0994    -0.2950    -5.9658 H       
  35 H35            2.6712     2.0122    -8.2007 H       
  36 H36            2.1758     0.5253    -7.3570 H       
  37 H37            0.2549     2.0519    -9.2625 H       
  38 H38           -1.2978     1.4492    -7.5434 H       
  39 H39            1.9554    -0.6414    -9.6515 H       
  40 H40            3.7298     0.1149   -11.0697 H       
  41 H41            3.7406     2.6984   -11.0750 H       
  42 H42            3.3350     2.6681    -9.3422 H       
  43 H43            6.0058     3.3570   -12.5649 H       
  44 H44            4.6394     3.8207   -11.5226 H       
  45 H45            7.2676     2.6405   -10.3599 H       
  46 H46            5.6834     1.5279    -8.9521 H       
  47 H47            6.0790     5.4814   -10.3743 H       
  48 H48            7.4453     5.0177   -11.4166 H       
  49 H49           -3.3378    -5.4148    -1.2249 H       
  50 H50           -4.2074    -2.7783    -0.2274 H       
  51 H51           -5.0199    -3.0574    -1.7863 H       
  52 H52           -5.2645    -4.1946    -0.4391 H       
  53 H53            5.9672     7.9092   -13.1207 H       
@<TRIPOS>BOND
   1    1    2 1
   2    1    5 1
   3    1   24 1
   4    1   25 1
   5    2   19 2
   6    2   26 1
   7    3    4 1
   8    3    6 1
   9    3   27 1
  10    3   28 1
  11    4    5 2
  12    4   29 1
  13    5   30 1
  14    6    7 2
  15    6   31 1
  16    7    8 1
  17    7   32 1
  18    8   11 1
  19    8   33 1
  20    8   34 1
  21    9   10 1
  22    9   12 1
  23    9   35 1
  24    9   36 1
  25   10   11 2
  26   10   37 1
  27   11   38 1
  28   12   13 2
  29   12   39 1
  30   13   14 1
  31   13   40 1
  32   14   17 1
  33   14   41 1
  34   14   42 1
  35   15   16 1
  36   15   18 1
  37   15   43 1
  38   15   44 1
  39   16   17 2
  40   16   45 1
  41   17   46 1
  42   18   21 1
  43   18   47 1
  44   18   48 1
  45   19   20 1
  46   19   49 1
  47   20   50 1
  48   20   51 1
  49   20   52 1
  50   21   22 2
  51   21   23 1
  52   23   53 1

#	End of record

