#	Name: ASD01903335
#	Creating user name:	WinNT
#	Creation time:	15. 06. 2019 19:54

#	Modifying user name:	WinNT
#	Modification time:	15. 06. 2019 19:54

#	Program:	/corina/corina34_cracker 3.40 0067  02.08.2006

@<TRIPOS>MOLECULE
ASD01903335
  42   45    0    0    0
SMALL
NO_CHARGES


@<TRIPOS>ATOM
   1 C1            -0.0228     1.3668     0.1863 C.ar    
   2 C2             0.0106    -0.0070     0.3017 C.ar    
   3 C3             1.2071    -0.6992     0.1526 C.ar    
   4 C4             2.3664    -0.0070    -0.1124 C.ar    
   5 C5             2.3300     1.3780    -0.2287 C.ar    
   6 C6             1.1420     2.0624    -0.0800 C.ar    
   7 S7             1.5176    -2.4326     0.2516 S.o2    
   8 N8             3.1427    -2.6377    -0.0159 N.am    
   9 S9             3.7376    -1.1070    -0.2560 S.o2    
  10 O10            4.1625    -1.0473    -1.6107 O.2     
  11 O11            4.5939    -0.8300     0.8436 O.2     
  12 O12            1.2803    -2.8085     1.6013 O.2     
  13 O13            0.8489    -3.0259    -0.8530 O.2     
  14 C14            3.8567    -3.8406    -0.0345 C.ar    
  15 C15            5.2245    -3.8327    -0.2757 C.ar    
  16 C16            5.9290    -5.0198    -0.2940 C.ar    
  17 C17            5.2700    -6.2218    -0.0718 C.ar    
  18 C18            3.9024    -6.2299     0.1694 C.ar    
  19 C19            3.1988    -5.0423     0.1939 C.ar    
  20 N20            5.9848    -7.4263    -0.0914 N.am    
  21 C21            5.4119    -8.5419    -0.5850 C.2     
  22 C22            6.1991    -9.7876    -0.7014 C.ar    
  23 O23            4.2476    -8.5238    -0.9345 O.2     
  24 C24            5.6088   -10.9448    -1.2123 C.ar    
  25 C25            6.3493   -12.1039    -1.3187 C.ar    
  26 C26            7.6742   -12.1211    -0.9200 C.ar    
  27 C27            8.2654   -10.9776    -0.4128 C.ar    
  28 C28            7.5378    -9.8103    -0.3064 C.ar    
  29 H29           -0.9567     1.8974     0.2993 H       
  30 H30           -0.8998    -0.5495     0.5097 H       
  31 H31            3.2394     1.9222    -0.4368 H       
  32 H32            1.1214     3.1382    -0.1721 H       
  33 H33            5.7368    -2.8979    -0.4492 H       
  34 H34            6.9925    -5.0137    -0.4816 H       
  35 H35            3.3900    -7.1648     0.3419 H       
  36 H36            2.1352    -5.0485     0.3814 H       
  37 H37            6.8920    -7.4575     0.2504 H       
  38 H38            4.5746   -10.9328    -1.5232 H       
  39 H39            5.8939   -12.9999    -1.7137 H       
  40 H40            8.2493   -13.0313    -1.0047 H       
  41 H41            9.2999   -10.9977    -0.1034 H       
  42 H42            8.0005    -8.9183     0.0894 H       
@<TRIPOS>BOND
   1    1    2 ar
   2    1    6 ar
   3    1   29 1
   4    2    3 ar
   5    2   30 1
   6    3    4 ar
   7    3    7 1
   8    4    5 ar
   9    4    9 1
  10    5    6 ar
  11    5   31 1
  12    6   32 1
  13    7    8 am
  14    7   12 2
  15    7   13 2
  16    8    9 am
  17    8   14 1
  18    9   10 2
  19    9   11 2
  20   14   15 ar
  21   14   19 ar
  22   15   16 ar
  23   15   33 1
  24   16   17 ar
  25   16   34 1
  26   17   18 ar
  27   17   20 1
  28   18   19 ar
  29   18   35 1
  30   19   36 1
  31   20   21 am
  32   20   37 1
  33   21   22 1
  34   21   23 2
  35   22   24 ar
  36   22   28 ar
  37   24   25 ar
  38   24   38 1
  39   25   26 ar
  40   25   39 1
  41   26   27 ar
  42   26   40 1
  43   27   28 ar
  44   27   41 1
  45   28   42 1

#	End of record

