#	Name: ASD05720321
#	Creating user name:	WinNT
#	Creation time:	15. 06. 2019 21:02

#	Modifying user name:	WinNT
#	Modification time:	15. 06. 2019 21:02

#	Program:	/corina/corina34_cracker 3.40 0067  02.08.2006

@<TRIPOS>MOLECULE
ASD05720321
  79   84    0    0    0
SMALL
NO_CHARGES


@<TRIPOS>ATOM
   1 N1             4.4534     1.3080     1.9067 N.am    
   2 C2             3.9434     0.0768     1.7052 C.2     
   3 O3             4.4373    -0.8845     2.2621 O.2     
   4 N4             2.8857    -0.0887     0.8864 N.am    
   5 C5             2.4273    -1.3739     0.5890 C.ar    
   6 C6             1.0673    -1.6014     0.4095 C.ar    
   7 C7             0.6122    -2.8681     0.1161 C.ar    
   8 C8             1.5179    -3.9238    -0.0016 C.ar    
   9 C9             2.8827    -3.6924     0.1786 C.ar    
  10 C10            3.3324    -2.4226     0.4672 C.ar    
  11 C11           -0.5758    -6.9375    -0.1237 C.ar    
  12 N12            0.1057    -7.7859    -0.8755 N.ar    
  13 C13            1.2828    -7.4418    -1.3908 C.ar    
  14 C14            1.7946    -6.1552    -1.1229 C.ar    
  15 C15            1.0322    -5.2855    -0.3162 C.ar    
  16 N16           -0.1338    -5.7179     0.1547 N.ar    
  17 N17            3.2664    -7.1848    -2.3991 N.2     
  18 N18            2.2018    -8.0681    -2.1805 N.pl3   
  19 C19            3.0381    -6.0599    -1.7834 C.2     
  20 O20           -3.6341    -7.9419     2.4252 O.3     
  21 C21           -3.7801    -6.7248     1.6886 C.3     
  22 C22           -2.4059    -6.2660     1.1937 C.3     
  23 N23           -1.7992    -7.3351     0.3874 N.3     
  24 C24           -1.6652    -8.5693     1.1749 C.3     
  25 C25           -3.0468    -9.0050     1.6699 C.3     
  26 N26            3.0128   -11.6583    -4.1892 N.am    
  27 C27            1.9722   -10.8105    -4.7869 C.3     
  28 C28            2.1198    -9.3879    -4.2380 C.3     
  29 C29            2.0941    -9.4304    -2.7084 C.3     
  30 C30            3.2692   -10.2686    -2.1999 C.3     
  31 C31            3.1346   -11.7012    -2.7257 C.3     
  32 C32            3.8362   -12.3871    -4.9685 C.2     
  33 O33            4.9058   -12.7680    -4.5336 O.2     
  34 N34            3.4739   -12.6937    -6.2300 N.am    
  35 C35            4.4342   -13.2992    -7.1651 C.3     
  36 C36            3.7937   -14.5483    -7.7797 C.3     
  37 N37            2.4958   -14.1905    -8.3672 N.3     
  38 C38            1.5589   -13.7150    -7.3405 C.3     
  39 C39            2.1061   -12.4373    -6.7061 C.3     
  40 C40            1.9276   -15.3195    -9.1159 C.3     
  41 C41            5.6031     1.4879     2.7967 C.3     
  42 H42            4.0618     2.0744     1.4592 H       
  43 H43            2.4429     0.6848     0.5037 H       
  44 H44            0.3671    -0.7842     0.5007 H       
  45 H45           -0.4443    -3.0443    -0.0225 H       
  46 H46            3.5857    -4.5072     0.0882 H       
  47 H47            4.3885    -2.2422     0.6030 H       
  48 H48            3.6905    -5.1992    -1.7790 H       
  49 H49           -4.4370    -6.8924     0.8350 H       
  50 H50           -4.2092    -5.9581     2.3338 H       
  51 H51           -2.5192    -5.3698     0.5837 H       
  52 H52           -1.7658    -6.0468     2.0484 H       
  53 H53           -1.2378    -9.3544     0.5512 H       
  54 H54           -1.0133    -8.3870     2.0292 H       
  55 H55           -2.9455    -9.8874     2.3017 H       
  56 H56           -3.6824    -9.2390     0.8159 H       
  57 H57            2.0889   -10.7980    -5.8706 H       
  58 H58            0.9885   -11.2019    -4.5277 H       
  59 H59            3.0662    -8.9645    -4.5744 H       
  60 H60            1.2963    -8.7716    -4.5988 H       
  61 H61            1.1579    -9.8768    -2.3732 H       
  62 H62            4.2048    -9.8369    -2.5555 H       
  63 H63            3.2638   -10.2791    -1.1100 H       
  64 H64            2.2457   -12.1652    -2.2984 H       
  65 H65            4.0183   -12.2763    -2.4493 H       
  66 H66            4.6767   -12.5865    -7.9534 H       
  67 H67            5.3410   -13.5788    -6.6288 H       
  68 H68            4.4467   -14.9475    -8.5558 H       
  69 H69            3.6471   -15.3007    -7.0047 H       
  70 H70            0.5912   -13.5098    -7.7981 H       
  71 H71            1.4435   -14.4789    -6.5716 H       
  72 H72            1.4745   -12.1474    -5.8664 H       
  73 H73            2.1206   -11.6402    -7.4494 H       
  74 H74            1.7857   -16.1662    -8.4443 H       
  75 H75            0.9671   -15.0275    -9.5403 H       
  76 H76            2.6085   -15.6026    -9.9186 H       
  77 H77            5.3450     1.1427     3.7979 H       
  78 H78            6.4479     0.9113     2.4201 H       
  79 H79            5.8717     2.5436     2.8343 H       
@<TRIPOS>BOND
   1    1    2 am
   2    1   41 1
   3    1   42 1
   4    2    3 2
   5    2    4 am
   6    4    5 1
   7    4   43 1
   8    5    6 ar
   9    5   10 ar
  10    6    7 ar
  11    6   44 1
  12    7    8 ar
  13    7   45 1
  14    8    9 ar
  15    8   15 1
  16    9   10 ar
  17    9   46 1
  18   10   47 1
  19   11   12 ar
  20   11   16 ar
  21   11   23 1
  22   12   13 ar
  23   13   14 ar
  24   13   18 1
  25   14   15 ar
  26   14   19 1
  27   15   16 ar
  28   17   18 1
  29   17   19 2
  30   18   29 1
  31   19   48 1
  32   20   21 1
  33   20   25 1
  34   21   22 1
  35   21   49 1
  36   21   50 1
  37   22   23 1
  38   22   51 1
  39   22   52 1
  40   23   24 1
  41   24   25 1
  42   24   53 1
  43   24   54 1
  44   25   55 1
  45   25   56 1
  46   26   27 1
  47   26   31 1
  48   26   32 am
  49   27   28 1
  50   27   57 1
  51   27   58 1
  52   28   29 1
  53   28   59 1
  54   28   60 1
  55   29   30 1
  56   29   61 1
  57   30   31 1
  58   30   62 1
  59   30   63 1
  60   31   64 1
  61   31   65 1
  62   32   33 2
  63   32   34 am
  64   34   35 1
  65   34   39 1
  66   35   36 1
  67   35   66 1
  68   35   67 1
  69   36   37 1
  70   36   68 1
  71   36   69 1
  72   37   38 1
  73   37   40 1
  74   38   39 1
  75   38   70 1
  76   38   71 1
  77   39   72 1
  78   39   73 1
  79   40   74 1
  80   40   75 1
  81   40   76 1
  82   41   77 1
  83   41   78 1
  84   41   79 1

#	End of record

