#	Name: ASD01884033
#	Creating user name:	WinNT
#	Creation time:	15. 06. 2019 19:47

#	Modifying user name:	WinNT
#	Modification time:	15. 06. 2019 19:47

#	Program:	/corina/corina34_cracker 3.40 0067  02.08.2006

@<TRIPOS>MOLECULE
ASD01884033
  54   56    0    0    0
SMALL
NO_CHARGES


@<TRIPOS>ATOM
   1 Cl1            0.0000     0.0000     0.0000 Cl      
   2 H2             0.0000     1.3700     0.0000 H       
   3 C3             7.7377    16.5673    19.0457 C.3     
   4 C4             7.8752    15.0471    18.9401 C.3     
   5 C5             8.6050    14.6899    17.6437 C.3     
   6 C6             8.7425    13.1697    17.5381 C.3     
   7 N7             9.4413    12.8277    16.2968 N.am    
   8 C8             8.8144    12.5775    14.9942 C.3     
   9 N9             9.8980    12.2747    14.0568 N.pl3   
  10 C10           11.0754    12.3409    14.7522 C.2     
  11 N11           12.0648    12.0705    13.9212 N.2     
  12 C12           11.5791    11.8304    12.7101 C.2     
  13 C13           12.3866    11.4830    11.4860 C.3     
  14 C14           10.2050    11.9531    12.7667 C.2     
  15 C15            9.2544    11.7720    11.6504 C.ar    
  16 C16            8.0844    11.0341    11.8404 C.ar    
  17 C17            7.1989    10.8671    10.7969 C.ar    
  18 C18            7.4686    11.4310     9.5574 C.ar    
  19 O19            6.5933    11.2635     8.5317 O.3     
  20 C20            6.8113    10.2389     7.6690 C.ar    
  21 C21            5.8884     9.9780     6.6647 C.ar    
  22 C22            6.1217     8.9306     5.7904 C.ar    
  23 C23            7.2776     8.1767     5.9534 C.ar    
  24 F24            7.5439     7.1458     5.1217 F       
  25 C25            8.1525     8.4940     6.9765 C.ar    
  26 N26            7.9033     9.5024     7.7901 N.ar    
  27 C27            9.4082     7.6815     7.1610 C.3     
  28 F28           10.4444     8.2477     6.4107 F       
  29 F29            9.7633     7.6726     8.5142 F       
  30 F30            9.1826     6.3700     6.7294 F       
  31 C31            8.6329    12.1676     9.3630 C.ar    
  32 F32            8.8912    12.7155     8.1554 F       
  33 C33            9.5211    12.3434    10.4039 C.ar    
  34 C34           10.7722    12.6931    16.1488 C.2     
  35 O35           11.5960    12.8379    17.0321 O.2     
  36 H36            8.7282    17.0223    19.0491 H       
  37 H37            7.1693    16.9407    18.1939 H       
  38 H38            7.2177    16.8218    19.9693 H       
  39 H39            8.4436    14.6737    19.7918 H       
  40 H40            6.8847    14.5921    18.9366 H       
  41 H41            8.0366    15.0634    16.7919 H       
  42 H42            9.5955    15.1449    17.6472 H       
  43 H43            9.3109    12.7963    18.3899 H       
  44 H44            7.7520    12.7147    17.5346 H       
  45 H45            8.1339    11.7289    15.0645 H       
  46 H46            8.2728    13.4641    14.6645 H       
  47 H47           12.5011    10.4010    11.4213 H       
  48 H48           11.8730    11.8479    10.5965 H       
  49 H49           13.3695    11.9490    11.5549 H       
  50 H50            7.8734    10.5941    12.8039 H       
  51 H51            6.2939    10.2963    10.9440 H       
  52 H52            5.0000    10.5844     6.5672 H       
  53 H53            5.4214     8.7042     5.0000 H       
  54 H54           10.4230    12.9183    10.2542 H       
@<TRIPOS>BOND
   1    1    2 1
   2    3    4 1
   3    3   36 1
   4    3   37 1
   5    3   38 1
   6    4    5 1
   7    4   39 1
   8    4   40 1
   9    5    6 1
  10    5   41 1
  11    5   42 1
  12    6    7 1
  13    6   43 1
  14    6   44 1
  15    7   34 am
  16    7    8 1
  17    8    9 1
  18    8   45 1
  19    8   46 1
  20    9   14 1
  21    9   10 1
  22   10   11 2
  23   10   34 1
  24   11   12 1
  25   12   13 1
  26   12   14 2
  27   13   47 1
  28   13   48 1
  29   13   49 1
  30   14   15 1
  31   15   33 ar
  32   15   16 ar
  33   16   17 ar
  34   16   50 1
  35   17   18 ar
  36   17   51 1
  37   18   19 1
  38   18   31 ar
  39   19   20 1
  40   20   26 ar
  41   20   21 ar
  42   21   22 ar
  43   21   52 1
  44   22   23 ar
  45   22   53 1
  46   23   24 1
  47   23   25 ar
  48   25   26 ar
  49   25   27 1
  50   27   28 1
  51   27   29 1
  52   27   30 1
  53   31   32 1
  54   31   33 ar
  55   33   54 1
  56   34   35 2

#	End of record

