#	Name: ASD01510126
#	Creating user name:	WinNT
#	Creation time:	15. 06. 2019 19:21

#	Modifying user name:	WinNT
#	Modification time:	15. 06. 2019 19:21

#	Program:	/corina/corina34_cracker 3.40 0067  02.08.2006

@<TRIPOS>MOLECULE
ASD01510126
  37   39    0    0    0
SMALL
NO_CHARGES


@<TRIPOS>ATOM
   1 C1            -0.9542     1.2124    -0.2936 C.3     
   2 N2            -0.7256    -0.2364    -0.2122 N.3     
   3 C3             0.1376    -0.5700     0.9294 C.3     
   4 C4             0.2862    -2.0902     1.0261 C.3     
   5 N5             0.8538    -2.6051    -0.2278 N.3     
   6 C6            -0.0094    -2.2714    -1.3694 C.3     
   7 C7            -0.1579    -0.7512    -1.4661 C.3     
   8 C8             1.0693    -3.9704    -0.1511 C.ar    
   9 N9             0.7601    -4.6107     0.9670 N.ar    
  10 C10            0.9506    -5.9158     1.0799 C.ar    
  11 C11            1.4809    -6.6173     0.0113 C.ar    
  12 C12            1.7973    -5.9147    -1.1551 C.ar    
  13 N13            1.5738    -4.6033    -1.1985 N.ar    
  14 C14            2.3678    -6.6205    -2.3280 C.ar    
  15 C15            1.8176    -7.8285    -2.7532 C.ar    
  16 C16            2.3528    -8.4809    -3.8453 C.ar    
  17 C17            3.4331    -7.9382    -4.5175 C.ar    
  18 C18            3.9832    -6.7396    -4.0999 C.ar    
  19 C19            3.4527    -6.0755    -3.0127 C.ar    
  20 I20            1.8026    -8.6836     0.1388 I       
  21 H21            0.0002     1.7246    -0.4157 H       
  22 H22           -1.5960     1.4316    -1.1470 H       
  23 H23           -1.4366     1.5561     0.6215 H       
  24 H24            1.1189    -0.1170     0.7880 H       
  25 H25           -0.3102    -0.1892     1.8474 H       
  26 H26            0.9494    -2.3388     1.8546 H       
  27 H27           -0.6917    -2.5411     1.1948 H       
  28 H28            0.4384    -2.6522    -2.2874 H       
  29 H29           -0.9906    -2.7245    -1.2280 H       
  30 H30           -0.8212    -0.5026    -2.2946 H       
  31 H31            0.8200    -0.3003    -1.6348 H       
  32 H32            0.6953    -6.4275     1.9960 H       
  33 H33            0.9744    -8.2533    -2.2289 H       
  34 H34            1.9275    -9.4171    -4.1754 H       
  35 H35            3.8488    -8.4524    -5.3714 H       
  36 H36            4.8268    -6.3207    -4.6283 H       
  37 H37            3.8830    -5.1398    -2.6876 H       
@<TRIPOS>BOND
   1    1    2 1
   2    1   21 1
   3    1   22 1
   4    1   23 1
   5    2    3 1
   6    2    7 1
   7    3    4 1
   8    3   24 1
   9    3   25 1
  10    4    5 1
  11    4   26 1
  12    4   27 1
  13    5    6 1
  14    5    8 1
  15    6    7 1
  16    6   28 1
  17    6   29 1
  18    7   30 1
  19    7   31 1
  20    8    9 ar
  21    8   13 ar
  22    9   10 ar
  23   10   11 ar
  24   10   32 1
  25   11   12 ar
  26   11   20 1
  27   12   13 ar
  28   12   14 1
  29   14   15 ar
  30   14   19 ar
  31   15   16 ar
  32   15   33 1
  33   16   17 ar
  34   16   34 1
  35   17   18 ar
  36   17   35 1
  37   18   19 ar
  38   18   36 1
  39   19   37 1

#	End of record

