#	Name: ASD03540573
#	Creating user name:	WinNT
#	Creation time:	15. 06. 2019 20:43

#	Modifying user name:	WinNT
#	Modification time:	15. 06. 2019 20:43

#	Program:	/corina/corina34_cracker 3.40 0067  02.08.2006

@<TRIPOS>MOLECULE
ASD03540573
  94   97    0    0    0
SMALL
NO_CHARGES


@<TRIPOS>ATOM
   1 C1             0.0773     1.4719    -0.1610 C.2     
   2 C2             0.0729    -0.0049    -0.1252 C.ar    
   3 C3             1.2695    -0.7131    -0.2521 C.ar    
   4 C4             1.2582    -2.0920    -0.2173 C.ar    
   5 C5             0.0646    -2.7734    -0.0575 C.ar    
   6 C6            -1.1249    -2.0779     0.0684 C.ar    
   7 C7            -1.1273    -0.6987     0.0416 C.ar    
   8 O8             1.1236     2.0729    -0.3011 O.2     
   9 O9            -1.0796     2.1520    -0.0437 O.3     
  10 C10            0.0601    -4.2800    -0.0210 C.3     
  11 N11            3.2246    -6.0724     0.5656 N.am    
  12 C12            2.0979    -5.5929     0.0123 C.2     
  13 N13            1.2693    -4.7557     0.6556 N.am    
  14 C14            1.5300    -4.3432     1.9152 C.2     
  15 C15            2.7541    -4.8378     2.5718 C.ar    
  16 C16            3.0921    -4.4596     3.8649 C.ar    
  17 C17            4.2621    -4.9576     4.4369 C.ar    
  18 C18            5.0829    -5.8289     3.7102 C.ar    
  19 C19            4.7502    -6.2007     2.4383 C.ar    
  20 C20            3.5884    -5.7147     1.8521 C.ar    
  21 O21            0.7756    -3.5839     2.4920 O.2     
  22 O22            1.8165    -5.9327    -1.1205 O.2     
  23 C23           -1.1749    -4.7680     0.7389 C.3     
  24 C24            4.6364    -4.5653     5.8102 C.2     
  25 N25            5.7672    -5.0462     6.3638 N.am    
  26 O26            3.9245    -3.8085     6.4416 O.2     
  27 C27            6.1386    -4.6570     7.7265 C.3     
  28 C28            7.4345    -5.3268     8.1047 C.ar    
  29 C29            8.6381    -4.6980     7.8444 C.ar    
  30 C30            9.8273    -5.3099     8.1901 C.ar    
  31 C31            9.8134    -6.5564     8.7990 C.ar    
  32 C32            8.6044    -7.1852     9.0591 C.ar    
  33 C33            7.4177    -6.5666     8.7165 C.ar    
  34 O34           10.9820    -7.1606     9.1396 O.3     
  35 C35           10.8915    -8.4432     9.7632 C.3     
  36 C36           -0.9998     3.6011    -0.0876 C.3     
  37 O37           -0.7732     4.0322    -1.4555 O.3     
  38 C38           -1.8202     3.9757    -2.2936 C.2     
  39 C39           -1.6607     4.4068    -3.7288 C.3     
  40 C40           -0.5975     3.5401    -4.4065 C.3     
  41 C41            0.7359     3.7026    -3.6739 C.3     
  42 O42           -2.8905     3.5791    -1.8973 O.2     
  43 C43           -1.0296     2.0731    -4.3597 C.3     
  44 N44           -2.9374     4.2512    -4.4302 N.am    
  45 C45           -3.2046     5.0010    -5.5177 C.2     
  46 C46           -4.5179     4.8409    -6.2392 C.3     
  47 C47           -5.6087     5.6083    -5.4894 C.3     
  48 C48           -6.9420     5.4457    -6.2219 C.3     
  49 O49           -2.3881     5.8047    -5.9157 O.2     
  50 C50           -5.7366     5.0550    -4.0686 C.3     
  51 N51           -4.3952     5.3722    -7.6033 N.3     
  52 H52            2.2018    -0.1824    -0.3776 H       
  53 H53            2.1831    -2.6410    -0.3154 H       
  54 H54           -2.0531    -2.6160     0.1922 H       
  55 H55           -2.0559    -0.1570     0.1449 H       
  56 H56            0.0370    -4.6681    -1.0393 H       
  57 H57            3.7875    -6.6785     0.0590 H       
  58 H58            2.4558    -3.7870     4.4210 H       
  59 H59            5.9879    -6.2105     4.1595 H       
  60 H60            5.3915    -6.8731     1.8878 H       
  61 H61           -2.0746    -4.4141     0.2356 H       
  62 H62           -1.1782    -5.8577     0.7654 H       
  63 H63           -1.1518    -4.3799     1.7573 H       
  64 H64            6.3351    -5.6500     5.8601 H       
  65 H65            6.2613    -3.5750     7.7746 H       
  66 H66            5.3549    -4.9649     8.4187 H       
  67 H67            8.6484    -3.7278     7.3701 H       
  68 H68           10.7672    -4.8185     7.9863 H       
  69 H69            8.5909    -8.1556     9.5329 H       
  70 H70            6.4761    -7.0536     8.9231 H       
  71 H71           11.8935    -8.8122     9.9823 H       
  72 H72           10.3251    -8.3573    10.6905 H       
  73 H73           10.3870    -9.1386     9.0923 H       
  74 H74           -1.9339     4.0277     0.2778 H       
  75 H75           -0.1758     3.9388     0.5410 H       
  76 H76           -1.3529     5.4519    -3.7621 H       
  77 H77           -0.4821     3.8519    -5.4445 H       
  78 H78            1.0437     4.7477    -3.7073 H       
  79 H79            0.6205     3.3908    -2.6359 H       
  80 H80            1.4933     3.0852    -4.1568 H       
  81 H81           -1.9795     1.9573    -4.8815 H       
  82 H82           -0.2722     1.4557    -4.8425 H       
  83 H83           -1.1450     1.7613    -3.3216 H       
  84 H84           -3.5905     3.6084    -4.1119 H       
  85 H85           -4.7819     3.7843    -6.2832 H       
  86 H86           -5.3447     6.6649    -5.4454 H       
  87 H87           -7.2060     4.3891    -6.2659 H       
  88 H88           -7.7191     5.9924    -5.6877 H       
  89 H89           -6.8510     5.8399    -7.2340 H       
  90 H90           -4.7866     5.1708    -3.5468 H       
  91 H91           -6.5136     5.6017    -3.5344 H       
  92 H92           -6.0005     3.9984    -4.1126 H       
  93 H93           -4.1508     6.3510    -7.5895 H       
  94 H94           -3.7264     4.8401    -8.1397 H       
@<TRIPOS>BOND
   1    1    2 1
   2    1    8 2
   3    1    9 1
   4    2    3 ar
   5    2    7 ar
   6    3    4 ar
   7    3   52 1
   8    4    5 ar
   9    4   53 1
  10    5    6 ar
  11    5   10 1
  12    6    7 ar
  13    6   54 1
  14    7   55 1
  15    9   36 1
  16   10   13 1
  17   10   23 1
  18   10   56 1
  19   11   12 am
  20   11   20 1
  21   11   57 1
  22   12   13 am
  23   12   22 2
  24   13   14 am
  25   14   15 1
  26   14   21 2
  27   15   16 ar
  28   15   20 ar
  29   16   17 ar
  30   16   58 1
  31   17   18 ar
  32   17   24 1
  33   18   19 ar
  34   18   59 1
  35   19   20 ar
  36   19   60 1
  37   23   61 1
  38   23   62 1
  39   23   63 1
  40   24   25 am
  41   24   26 2
  42   25   27 1
  43   25   64 1
  44   27   28 1
  45   27   65 1
  46   27   66 1
  47   28   29 ar
  48   28   33 ar
  49   29   30 ar
  50   29   67 1
  51   30   31 ar
  52   30   68 1
  53   31   32 ar
  54   31   34 1
  55   32   33 ar
  56   32   69 1
  57   33   70 1
  58   34   35 1
  59   35   71 1
  60   35   72 1
  61   35   73 1
  62   36   37 1
  63   36   74 1
  64   36   75 1
  65   37   38 1
  66   38   39 1
  67   38   42 2
  68   39   40 1
  69   39   44 1
  70   39   76 1
  71   40   41 1
  72   40   43 1
  73   40   77 1
  74   41   78 1
  75   41   79 1
  76   41   80 1
  77   43   81 1
  78   43   82 1
  79   43   83 1
  80   44   45 am
  81   44   84 1
  82   45   46 1
  83   45   49 2
  84   46   47 1
  85   46   51 1
  86   46   85 1
  87   47   48 1
  88   47   50 1
  89   47   86 1
  90   48   87 1
  91   48   88 1
  92   48   89 1
  93   50   90 1
  94   50   91 1
  95   50   92 1
  96   51   93 1
  97   51   94 1

#	End of record

