#	Name: ASD01911304
#	Creating user name:	WinNT
#	Creation time:	15. 06. 2019 19:57

#	Modifying user name:	WinNT
#	Modification time:	15. 06. 2019 19:57

#	Program:	/corina/corina34_cracker 3.40 0067  02.08.2006

@<TRIPOS>MOLECULE
ASD01911304
  32   34    0    0    0
SMALL
NO_CHARGES


@<TRIPOS>ATOM
   1 C1             0.0417     1.2841     0.6870 C.ar    
   2 C2             0.0192    -0.1043     0.5090 C.ar    
   3 N3             1.1254    -0.8345     0.6273 N.ar    
   4 C4             2.2916    -0.2830     0.9175 C.ar    
   5 C5             2.3766     1.1105     1.1005 C.ar    
   6 C6             1.2272     1.9020     0.9851 C.ar    
   7 O7             3.3907    -1.0610     1.0429 O.3     
   8 C8             4.6760    -0.4658     0.8688 C.3     
   9 C9             4.7986     0.7603     1.7854 C.3     
  10 C10            3.6803     1.7155     1.4070 C.2     
  11 O11            3.8542     2.9155     1.3600 O.2     
  12 C12           -1.2517    -0.7688     0.1854 C.2     
  13 C13           -1.2695    -2.0828    -0.1023 C.2     
  14 C14           -0.0059    -2.8026    -0.3363 C.ar    
  15 C15            0.2015    -4.0616     0.2348 C.ar    
  16 C16            1.3869    -4.7296     0.0108 C.ar    
  17 C17            2.3699    -4.1568    -0.7772 C.ar    
  18 C18            2.1718    -2.9108    -1.3460 C.ar    
  19 C19            0.9895    -2.2329    -1.1354 C.ar    
  20 H20           -0.8650     1.8621     0.5861 H       
  21 H21            1.2743     2.9716     1.1267 H       
  22 H22            5.4496    -1.1898     1.1248 H       
  23 H23            4.7960    -0.1569    -0.1696 H       
  24 H24            4.6919     0.4575     2.8270 H       
  25 H25            5.7649     1.2415     1.6346 H       
  26 H26           -2.1710    -0.2020     0.1786 H       
  27 H27           -2.2103    -2.6099    -0.1617 H       
  28 H28           -0.5645    -4.5097     0.8503 H       
  29 H29            1.5488    -5.7022     0.4517 H       
  30 H30            3.2963    -4.6846    -0.9488 H       
  31 H31            2.9435    -2.4701    -1.9598 H       
  32 H32            0.8362    -1.2608    -1.5803 H       
@<TRIPOS>BOND
   1    1    2 ar
   2    1    6 ar
   3    1   20 1
   4    2    3 ar
   5    2   12 1
   6    3    4 ar
   7    4    5 ar
   8    4    7 1
   9    5    6 ar
  10    5   10 1
  11    6   21 1
  12    7    8 1
  13    8    9 1
  14    8   22 1
  15    8   23 1
  16    9   10 1
  17    9   24 1
  18    9   25 1
  19   10   11 2
  20   12   13 2
  21   12   26 1
  22   13   14 1
  23   13   27 1
  24   14   15 ar
  25   14   19 ar
  26   15   16 ar
  27   15   28 1
  28   16   17 ar
  29   16   29 1
  30   17   18 ar
  31   17   30 1
  32   18   19 ar
  33   18   31 1
  34   19   32 1

#	End of record

