#	Name: ASD02030751
#	Creating user name:	WinNT
#	Creation time:	15. 06. 2019 20:16

#	Modifying user name:	WinNT
#	Modification time:	15. 06. 2019 20:16

#	Program:	/corina/corina34_cracker 3.40 0067  02.08.2006

@<TRIPOS>MOLECULE
ASD02030751
  58   60    0    0    0
SMALL
NO_CHARGES


@<TRIPOS>ATOM
   1 C1            -0.0168     1.3868     0.0097 C.ar    
   2 C2             0.0021    -0.0041     0.0020 C.ar    
   3 N3             1.1532    -0.6656    -0.0125 N.ar    
   4 C4             2.3128    -0.0439    -0.0203 C.ar    
   5 C5             2.3812     1.3376    -0.0135 C.ar    
   6 C6             1.1969     2.0790     0.0018 C.ar    
   7 C7            -1.2753    -0.7550     0.0107 C.2     
   8 N8            -1.2648    -2.1027     0.0033 N.am    
   9 C9            -2.4528    -2.9688     0.0105 C.3     
  10 C10           -1.9548    -4.4294     0.0240 C.3     
  11 C11           -0.5177    -4.3014     0.5949 C.3     
  12 C12           -0.0603    -2.9524    -0.0196 C.3     
  13 C13            1.2274     3.5624     0.0090 C.ar    
  14 C14            0.0711     5.6659     0.0367 C.ar    
  15 C15            0.0368     4.2862     0.0296 C.ar    
  16 C16            2.4468     4.2368     0.0010 C.ar    
  17 C17            2.4693     5.6168     0.0082 C.ar    
  18 C18            1.2843     6.3302     0.0234 C.ar    
  19 C19            1.3153     7.8369     0.0312 C.3     
  20 C20            2.0294     8.3389    -1.2254 C.3     
  21 N21            1.9552     9.8010    -1.2781 N.am    
  22 S22            2.9418    10.6436    -2.3071 S.o2    
  23 C23            2.4039    10.1392    -3.9644 C.3     
  24 C24            0.9311    10.5068    -4.1564 C.3     
  25 C25            3.2504    10.8587    -5.0164 C.3     
  26 C26            2.0643     8.3252     1.2728 C.3     
  27 O27           -2.3323    -0.1557     0.0244 O.2     
  28 O28            2.6144    12.0058    -2.0696 O.2     
  29 O29            4.2434    10.1443    -2.0319 O.2     
  30 H30           -0.9543     1.9229     0.0170 H       
  31 H31            3.2254    -0.6213    -0.0317 H       
  32 H32            3.3386     1.8373    -0.0196 H       
  33 H33           -3.0494    -2.7724     0.9013 H       
  34 H34           -3.0484    -2.7885    -0.8844 H       
  35 H35           -2.5759    -5.0426     0.6769 H       
  36 H36           -1.9334    -4.8390    -0.9859 H       
  37 H37           -0.5327    -4.2534     1.6837 H       
  38 H38            0.1140    -5.1199     0.2501 H       
  39 H39            0.2870    -3.0998    -1.0423 H       
  40 H40            0.7264    -2.5059     0.5885 H       
  41 H41           -0.8510     6.2279     0.0523 H       
  42 H42           -0.9109     3.7685     0.0397 H       
  43 H43            3.3726     3.6807    -0.0105 H       
  44 H44            3.4138     6.1405     0.0024 H       
  45 H45            0.2955     8.2212     0.0476 H       
  46 H46            3.0740     8.0288    -1.1981 H       
  47 H47            1.5486     7.9186    -2.1088 H       
  48 H48            1.3281    10.2756    -0.7102 H       
  49 H49            2.5267     9.0618    -4.0741 H       
  50 H50            0.8082    11.5843    -4.0468 H       
  51 H51            0.6078    10.2037    -5.1523 H       
  52 H52            0.3280     9.9942    -3.4070 H       
  53 H53            4.2996    10.5969    -4.8796 H       
  54 H54            2.9271    10.5557    -6.0122 H       
  55 H55            3.1275    11.9362    -4.9067 H       
  56 H56            2.0867     9.4149     1.2784 H       
  57 H57            1.5556     7.9676     2.1680 H       
  58 H58            3.0842     7.9409     1.2564 H       
@<TRIPOS>BOND
   1    1    2 ar
   2    1    6 ar
   3    1   30 1
   4    2    3 ar
   5    2    7 1
   6    3    4 ar
   7    4    5 ar
   8    4   31 1
   9    5    6 ar
  10    5   32 1
  11    6   13 1
  12    7    8 am
  13    7   27 2
  14    8    9 1
  15    8   12 1
  16    9   10 1
  17    9   33 1
  18    9   34 1
  19   10   11 1
  20   10   35 1
  21   10   36 1
  22   11   12 1
  23   11   37 1
  24   11   38 1
  25   12   39 1
  26   12   40 1
  27   13   16 ar
  28   13   15 ar
  29   14   15 ar
  30   14   18 ar
  31   14   41 1
  32   15   42 1
  33   16   17 ar
  34   16   43 1
  35   17   18 ar
  36   17   44 1
  37   18   19 1
  38   19   20 1
  39   19   26 1
  40   19   45 1
  41   20   21 1
  42   20   46 1
  43   20   47 1
  44   21   22 am
  45   21   48 1
  46   22   23 1
  47   22   28 2
  48   22   29 2
  49   23   24 1
  50   23   25 1
  51   23   49 1
  52   24   50 1
  53   24   51 1
  54   24   52 1
  55   25   53 1
  56   25   54 1
  57   25   55 1
  58   26   56 1
  59   26   57 1
  60   26   58 1

#	End of record

