#	Name: ASD05872038
#	Creating user name:	WinNT
#	Creation time:	15. 06. 2019 21:04

#	Modifying user name:	WinNT
#	Modification time:	15. 06. 2019 21:04

#	Program:	/corina/corina34_cracker 3.40 0067  02.08.2006

@<TRIPOS>MOLECULE
ASD05872038
  52   56    0    0    0
SMALL
NO_CHARGES


@<TRIPOS>ATOM
   1 C1            -0.0167     1.3782     0.0096 C.ar    
   2 C2             0.0021    -0.0041     0.0020 C.ar    
   3 C3            -1.1846    -0.7140     0.0091 C.ar    
   4 C4            -2.3920    -0.0433     0.0237 C.ar    
   5 C5            -2.4135     1.3440     0.0319 C.ar    
   6 C6            -1.2217     2.0538     0.0305 C.ar    
   7 C7             1.2784     2.1488     0.0014 C.3     
   8 C8             1.8766     2.1656     1.3697 C.2     
   9 C9             3.0949     1.5522     1.2993 C.2     
  10 C10            3.3207     1.1316    -0.0947 C.2     
  11 N11            2.2645     1.4754    -0.8596 N.am    
  12 C12            1.3737     2.7050     2.6376 C.2     
  13 C13            2.3879     2.7175     3.7220 C.ar    
  14 C14            3.6094     2.0546     3.5197 C.ar    
  15 O15            3.8925     1.3942     2.3739 O.3     
  16 C16            2.1307     3.3794     4.9223 C.ar    
  17 C17            3.0768     3.3859     5.9091 C.ar    
  18 C18            4.2892     2.7376     5.7189 C.ar    
  19 C19            4.5592     2.0780     4.5410 C.ar    
  20 O20            0.2327     3.1054     2.7866 O.2     
  21 O21            4.3141     0.5591    -0.4966 O.2     
  22 C22            2.1229     1.2223    -2.2956 C.3     
  23 C23            1.4641    -0.1165    -2.5071 C.ar    
  24 C24            0.0870    -0.2036    -2.5911 C.ar    
  25 C25           -0.5173    -1.4316    -2.7851 C.ar    
  26 C26            0.2555    -2.5724    -2.8956 C.ar    
  27 C27            1.6326    -2.4852    -2.8126 C.ar    
  28 C28            2.2371    -1.2566    -2.6229 C.ar    
  29 C29           -0.4034    -3.9113    -3.1061 C.3     
  30 O30           -3.6001     2.0063     0.0459 O.3     
  31 S31           -4.1287     2.3000     1.4426 S.o2    
  32 O32           -5.5280     2.6682     1.2927 O.co2   
  33 O33           -3.9653     1.0802     2.2180 O.co2   
  34 O34           -3.3298     3.3945     1.9718 O.co2   
  35 H35            0.9451    -0.5304    -0.0098 H       
  36 H36           -1.1673    -1.7939     0.0028 H       
  37 H37           -3.3185    -0.5982     0.0285 H       
  38 H38           -1.2358     3.1337     0.0368 H       
  39 H39            1.1071     3.1674    -0.3466 H       
  40 H40            1.1881     3.8850     5.0716 H       
  41 H41            2.8803     3.8975     6.8397 H       
  42 H42            5.0301     2.7509     6.5045 H       
  43 H43            5.5073     1.5783     4.4076 H       
  44 H44            1.5094     2.0040    -2.7435 H       
  45 H45            3.1076     1.2206    -2.7630 H       
  46 H46           -0.5167     0.6877    -2.5047 H       
  47 H47           -1.5932    -1.4998    -2.8499 H       
  48 H48            2.2363    -3.3766    -2.8987 H       
  49 H49            3.3130    -1.1884    -2.5581 H       
  50 H50           -0.5097    -4.1000    -4.1744 H       
  51 H51            0.2107    -4.6928    -2.6586 H       
  52 H52           -1.3876    -3.9096    -2.6377 H       
@<TRIPOS>BOND
   1    1    2 ar
   2    1    7 1
   3    1    6 ar
   4    2    3 ar
   5    2   35 1
   6    3    4 ar
   7    3   36 1
   8    4    5 ar
   9    4   37 1
  10    5    6 ar
  11    5   30 1
  12    6   38 1
  13    7    8 1
  14    7   11 1
  15    7   39 1
  16    8    9 2
  17    8   12 1
  18    9   10 1
  19    9   15 1
  20   10   11 am
  21   10   21 2
  22   11   22 1
  23   12   13 1
  24   12   20 2
  25   13   14 ar
  26   13   16 ar
  27   14   15 1
  28   14   19 ar
  29   16   17 ar
  30   16   40 1
  31   17   18 ar
  32   17   41 1
  33   18   19 ar
  34   18   42 1
  35   19   43 1
  36   22   23 1
  37   22   44 1
  38   22   45 1
  39   23   24 ar
  40   23   28 ar
  41   24   25 ar
  42   24   46 1
  43   25   26 ar
  44   25   47 1
  45   26   27 ar
  46   26   29 1
  47   27   28 ar
  48   27   48 1
  49   28   49 1
  50   29   50 1
  51   29   51 1
  52   29   52 1
  53   30   31 1
  54   31   32 ar
  55   31   33 ar
  56   31   34 ar

#	End of record

