#	Name: ASD01812938
#	Creating user name:	WinNT
#	Creation time:	15. 06. 2019 19:29

#	Modifying user name:	WinNT
#	Modification time:	15. 06. 2019 19:29

#	Program:	/corina/corina34_cracker 3.40 0067  02.08.2006

@<TRIPOS>MOLECULE
ASD01812938
  52   56    0    0    0
SMALL
NO_CHARGES


@<TRIPOS>ATOM
   1 C1            -0.0166     1.3764     0.0096 C.ar    
   2 C2             0.0021    -0.0041     0.0020 C.ar    
   3 C3             1.2108    -0.6875    -0.0132 C.ar    
   4 C4             2.3967     0.0098    -0.0204 C.ar    
   5 C5             2.3942     1.4082    -0.0129 C.ar    
   6 C6             1.1713     2.0921     0.0021 C.ar    
   7 C7             3.8445    -0.4129    -0.0360 C.3     
   8 N8             4.6325     0.8250    -0.0366 N.am    
   9 C9             3.7910     1.8731    -0.0232 C.2     
  10 C10            6.0953     0.9053    -0.0489 C.3     
  11 C11            6.5845     0.9400    -1.4739 C.ar    
  12 O12            1.1494     3.4488     0.0092 O.3     
  13 O13            4.1347     3.0394    -0.0208 O.2     
  14 C14            6.7428     2.1524    -2.1197 C.ar    
  15 C15            7.1910     2.1874    -3.4257 C.ar    
  16 C16            7.4827     1.0037    -4.0900 C.ar    
  17 C17            7.3227    -0.2121    -3.4389 C.ar    
  18 C18            6.8795    -0.2403    -2.1310 C.ar    
  19 N19            7.9373     1.0359    -5.4157 N.pl3   
  20 C20           -0.1340     4.0769     0.0244 C.3     
  21 C21            0.0419     5.5968     0.0305 C.3     
  22 O22            0.6209     6.0238    -1.2081 O.3     
  23 C23           -0.2875     6.8956    -1.8995 C.3     
  24 C24           -1.1911     7.4975    -0.7941 C.3     
  25 C25           -1.3347     6.2828     0.1630 C.3     
  26 F26            1.2222    -2.0385    -0.0206 F       
  27 N27            8.1482     2.1860    -6.1872 N.2     
  28 C28            8.2555    -0.0373    -6.1742 C.2     
  29 C29            8.6487     0.4174    -7.3866 C.2     
  30 C30            8.5777     1.8146    -7.3664 C.2     
  31 H31           -0.9605     1.9012     0.0169 H       
  32 H32           -0.9271    -0.5546     0.0083 H       
  33 H33            4.0725    -1.0018     0.8524 H       
  34 H34            4.0561    -0.9922    -0.9347 H       
  35 H35            6.4137     1.8113     0.4668 H       
  36 H36            6.5112     0.0340     0.4570 H       
  37 H37            6.5155     3.0729    -1.6025 H       
  38 H38            7.3142     3.1346    -3.9297 H       
  39 H39            7.5484    -1.1345    -3.9532 H       
  40 H40            6.7594    -1.1855    -1.6224 H       
  41 H41           -0.6946     3.7796    -0.8619 H       
  42 H42           -0.6779     3.7706     0.9180 H       
  43 H43            0.6847     5.8911     0.8601 H       
  44 H44            0.2620     7.6860    -2.4109 H       
  45 H45           -0.8874     6.3291    -2.6117 H       
  46 H46           -0.6994     8.3335    -0.2967 H       
  47 H47           -2.1587     7.7965    -1.1971 H       
  48 H48           -2.1326     5.6190    -0.1697 H       
  49 H49           -1.5060     6.6141     1.1872 H       
  50 H50            8.2052    -1.0716    -5.8675 H       
  51 H51            8.9680    -0.1905    -8.2202 H       
  52 H52            8.8295     2.4731    -8.1845 H       
@<TRIPOS>BOND
   1    1    2 ar
   2    1    6 ar
   3    1   31 1
   4    2    3 ar
   5    2   32 1
   6    3    4 ar
   7    3   26 1
   8    4    7 1
   9    4    5 ar
  10    5    6 ar
  11    5    9 1
  12    6   12 1
  13    7    8 1
  14    7   33 1
  15    7   34 1
  16    8    9 am
  17    8   10 1
  18    9   13 2
  19   10   11 1
  20   10   35 1
  21   10   36 1
  22   11   14 ar
  23   11   18 ar
  24   12   20 1
  25   14   15 ar
  26   14   37 1
  27   15   16 ar
  28   15   38 1
  29   16   17 ar
  30   16   19 1
  31   17   18 ar
  32   17   39 1
  33   18   40 1
  34   19   28 1
  35   19   27 1
  36   20   21 1
  37   20   41 1
  38   20   42 1
  39   21   22 1
  40   21   25 1
  41   21   43 1
  42   22   23 1
  43   23   24 1
  44   23   44 1
  45   23   45 1
  46   24   25 1
  47   24   46 1
  48   24   47 1
  49   25   48 1
  50   25   49 1
  51   27   30 2
  52   28   29 2
  53   28   50 1
  54   29   30 1
  55   29   51 1
  56   30   52 1

#	End of record

