#	Name: ASD08150029
#	Creating user name:	WinNT
#	Creation time:	15. 06. 2019 21:15

#	Modifying user name:	WinNT
#	Modification time:	15. 06. 2019 21:15

#	Program:	/corina/corina34_cracker 3.40 0067  02.08.2006

@<TRIPOS>MOLECULE
ASD08150029
  44   47    0    0    0
SMALL
NO_CHARGES


@<TRIPOS>ATOM
   1 C1            -0.0184     1.5028     0.0103 C.2     
   2 C2             0.0021    -0.0041     0.0020 C.3     
   3 O3             1.0197     2.1211     0.0037 O.2     
   4 O4            -1.1898     2.1580     0.0194 O.3     
   5 N5             3.2668    -1.1108     1.2281 N.2     
   6 C6             2.0385    -0.6956     1.1592 C.2     
   7 N7             1.3897    -0.4735    -0.0138 N.am    
   8 C8             2.0134    -0.6825    -1.1966 C.2     
   9 C9             3.4044    -1.1532    -1.1540 C.ar    
  10 C10            4.1368    -1.3985    -2.3166 C.ar    
  11 C11            5.4416    -1.8397    -2.2166 C.ar    
  12 C12            6.0250    -2.0392    -0.9736 C.ar    
  13 C13            5.3184    -1.8026     0.1848 C.ar    
  14 C14            3.9980    -1.3562     0.1119 C.ar    
  15 C15            1.2947    -0.4467     2.4459 C.3     
  16 S16            2.3768    -0.8150     3.8493 S.3     
  17 N17            2.8537    -0.9824     7.1166 N.2     
  18 C18            2.7057    -0.9349     8.4088 C.2     
  19 N19            1.4475    -0.5109     8.7180 N.pl3   
  20 C20            0.7874    -0.2860     7.5364 C.ar    
  21 N21           -0.4323     0.1266     7.2066 N.ar    
  22 C22           -0.7813     0.2472     5.9428 C.ar    
  23 N23            0.0440    -0.0288     4.9501 N.ar    
  24 C24            1.2844    -0.4484     5.1824 C.ar    
  25 C25            1.7036    -0.5931     6.5164 C.ar    
  26 O26            1.4437    -0.4884    -2.2547 O.2     
  27 F27            3.5738    -1.2064    -3.5296 F       
  28 C28           -1.1335     3.6089     0.0270 C.3     
  29 C29           -2.5551     4.1744     0.0369 C.3     
  30 H30           -0.4983    -0.3791     0.8948 H       
  31 H31           -0.5153    -0.3696    -0.8850 H       
  32 H32            6.0125    -2.0312    -3.1132 H       
  33 H33            7.0464    -2.3848    -0.9136 H       
  34 H34            5.7845    -1.9615     1.1460 H       
  35 H35            0.9848     0.5974     2.4903 H       
  36 H36            0.4149    -1.0889     2.4871 H       
  37 H37            3.4673    -1.1932     9.1297 H       
  38 H38            1.0853    -0.3904     9.6097 H       
  39 H39           -1.7804     0.5846     5.7095 H       
  40 H40           -0.6017     3.9472     0.9164 H       
  41 H41           -0.6102     3.9569    -0.8636 H       
  42 H42           -3.0869     3.8361    -0.8525 H       
  43 H43           -3.0784     3.8265     0.9275 H       
  44 H44           -2.5128     5.2636     0.0426 H       
@<TRIPOS>BOND
   1    1    2 1
   2    1    3 2
   3    1    4 1
   4    2    7 1
   5    2   30 1
   6    2   31 1
   7    4   28 1
   8    5    6 2
   9    5   14 1
  10    6    7 1
  11    6   15 1
  12    7    8 am
  13    8    9 1
  14    8   26 2
  15    9   10 ar
  16    9   14 ar
  17   10   11 ar
  18   10   27 1
  19   11   12 ar
  20   11   32 1
  21   12   13 ar
  22   12   33 1
  23   13   14 ar
  24   13   34 1
  25   15   16 1
  26   15   35 1
  27   15   36 1
  28   16   24 1
  29   17   18 2
  30   17   25 1
  31   18   19 1
  32   18   37 1
  33   19   20 1
  34   19   38 1
  35   20   21 ar
  36   20   25 ar
  37   21   22 ar
  38   22   23 ar
  39   22   39 1
  40   23   24 ar
  41   24   25 ar
  42   28   29 1
  43   28   40 1
  44   28   41 1
  45   29   42 1
  46   29   43 1
  47   29   44 1

#	End of record

