#	Name: ASD02508470
#	Creating user name:	WinNT
#	Creation time:	15. 06. 2019 20:24

#	Modifying user name:	WinNT
#	Modification time:	15. 06. 2019 20:24

#	Program:	/corina/corina34_cracker 3.40 0067  02.08.2006

@<TRIPOS>MOLECULE
ASD02508470
  36   39    0    0    0
SMALL
NO_CHARGES


@<TRIPOS>ATOM
   1 C1             1.1046     1.7982    -0.0185 C.2     
   2 C2             2.0788     0.7877     0.1171 C.2     
   3 C3             1.4517    -0.3989    -0.0055 C.2     
   4 N4             0.1217    -0.1593    -0.2125 N.pl3   
   5 C5            -0.0825     1.1924    -0.2190 C.2     
   6 C6            -0.8625    -1.1318    -0.3883 C.ar    
   7 N7            -0.5324    -2.4146    -0.4909 N.ar    
   8 C8            -2.2079    -0.7733    -0.4531 C.ar    
   9 C9            -3.1468    -1.7734    -0.6278 C.ar    
  10 N10           -2.7410    -3.0303    -0.7272 N.ar    
  11 C11           -1.4598    -3.3374    -0.6567 C.ar    
  12 S12            2.2142    -1.9848     0.0848 S.o2    
  13 N13            2.3192    -2.5670    -1.4619 N.am    
  14 C14            3.0568    -1.8682    -2.4239 C.ar    
  15 C15            4.3546    -1.4626    -2.1440 C.ar    
  16 C16            5.0844    -0.7722    -3.0935 C.ar    
  17 C17            4.5233    -0.4827    -4.3261 C.ar    
  18 C18            3.2212    -0.8883    -4.6101 C.ar    
  19 C19            2.4928    -1.5853    -3.6609 C.ar    
  20 O20            3.5481    -1.7644     0.5220 O.2     
  21 O21            1.3012    -2.8305     0.7708 O.2     
  22 Cl22          -0.9813    -5.0005    -0.7934 Cl      
  23 O23            5.0226     0.1739    -5.4153 O.3     
  24 C24            4.1629    -0.1910    -6.5112 C.3     
  25 O25            2.9051    -0.4862    -5.8757 O.3     
  26 H26            1.2774     2.8630     0.0336 H       
  27 H27            3.1346     0.9374     0.2880 H       
  28 H28           -1.0312     1.6889    -0.3599 H       
  29 H29           -2.5097     0.2603    -0.3686 H       
  30 H30           -4.1982    -1.5326    -0.6822 H       
  31 H31            1.8693    -3.3925    -1.7010 H       
  32 H32            4.7943    -1.6864    -1.1833 H       
  33 H33            6.0939    -0.4576    -2.8735 H       
  34 H34            1.4832    -1.9007    -3.8791 H       
  35 H35            4.0547     0.6413    -7.2066 H       
  36 H36            4.5490    -1.0721    -7.0239 H       
@<TRIPOS>BOND
   1    1    2 1
   2    1    5 2
   3    1   26 1
   4    2    3 2
   5    2   27 1
   6    3    4 1
   7    3   12 1
   8    4    5 1
   9    4    6 1
  10    5   28 1
  11    6    7 ar
  12    6    8 ar
  13    7   11 ar
  14    8    9 ar
  15    8   29 1
  16    9   10 ar
  17    9   30 1
  18   10   11 ar
  19   11   22 1
  20   12   13 am
  21   12   20 2
  22   12   21 2
  23   13   14 1
  24   13   31 1
  25   14   15 ar
  26   14   19 ar
  27   15   16 ar
  28   15   32 1
  29   16   17 ar
  30   16   33 1
  31   17   18 ar
  32   17   23 1
  33   18   19 ar
  34   18   25 1
  35   19   34 1
  36   23   24 1
  37   24   25 1
  38   24   35 1
  39   24   36 1

#	End of record

