#	Name: ASD01910097
#	Creating user name:	WinNT
#	Creation time:	15. 06. 2019 19:55

#	Modifying user name:	WinNT
#	Modification time:	15. 06. 2019 19:55

#	Program:	/corina/corina34_cracker 3.40 0067  02.08.2006

@<TRIPOS>MOLECULE
ASD01910097
  42   45    0    0    0
SMALL
NO_CHARGES


@<TRIPOS>ATOM
   1 C1             0.1129     0.5032     0.4061 C.ar    
   2 C2             0.3431    -0.8586     0.4526 C.ar    
   3 C3             1.6360    -1.3554     0.3888 C.ar    
   4 C4             2.7035    -0.4796     0.2773 C.ar    
   5 C5             2.4686     0.9097     0.2295 C.ar    
   6 C6             1.1715     1.3916     0.2946 C.ar    
   7 C7             4.1696    -0.6451     0.1868 C.2     
   8 N8             4.7335     0.5726     0.0933 N.am    
   9 C9             3.7999     1.5410     0.1115 C.2     
  10 C10            6.1747     0.8127    -0.0133 C.3     
  11 C11            6.6005     0.6824    -1.4531 C.ar    
  12 C12            6.4504     1.7552    -2.3218 C.ar    
  13 C13            6.8441     1.6327    -3.6481 C.ar    
  14 C14            7.3837     0.4447    -4.1001 C.ar    
  15 C15            7.5325    -0.6241    -3.2320 C.ar    
  16 C16            7.1456    -0.5023    -1.9081 C.ar    
  17 N17            5.9029     2.9580    -1.8617 N.am    
  18 C18            5.3564     3.8272    -2.7348 C.2     
  19 C19            4.8829     5.1498    -2.2651 C.ar    
  20 C20            4.3190     6.0437    -3.1724 C.ar    
  21 C21            3.8801     7.2775    -2.7177 C.ar    
  22 C22            4.0206     7.5741    -1.3712 C.ar    
  23 C23            4.5911     6.6364    -0.5249 C.ar    
  24 N24            4.9945     5.4712    -0.9818 N.ar    
  25 O25            5.2521     3.5259    -3.9075 O.2     
  26 O26            4.0150     2.7343     0.0429 O.2     
  27 O27            4.7654    -1.7034     0.1959 O.2     
  28 F28            8.0603    -1.7857    -3.6763 F       
  29 H29           -0.8990     0.8778     0.4525 H       
  30 H30           -0.4897    -1.5406     0.5395 H       
  31 H31            1.8101    -2.4206     0.4262 H       
  32 H32            0.9856     2.4549     0.2581 H       
  33 H33            6.4032     1.8169     0.3437 H       
  34 H34            6.7106     0.0813     0.5916 H       
  35 H35            6.7278     2.4657    -4.3255 H       
  36 H36            7.6896     0.3488    -5.1314 H       
  37 H37            7.2625    -1.3370    -1.2328 H       
  38 H38            5.9166     3.1662    -0.9144 H       
  39 H39            4.2255     5.7794    -4.2153 H       
  40 H40            3.4390     7.9916    -3.3974 H       
  41 H41            3.6890     8.5267    -0.9852 H       
  42 H42            4.7021     6.8643     0.5249 H       
@<TRIPOS>BOND
   1    1    2 ar
   2    1    6 ar
   3    1   29 1
   4    2    3 ar
   5    2   30 1
   6    3    4 ar
   7    3   31 1
   8    4    5 ar
   9    4    7 1
  10    5    6 ar
  11    5    9 1
  12    6   32 1
  13    7    8 am
  14    7   27 2
  15    8    9 am
  16    8   10 1
  17    9   26 2
  18   10   11 1
  19   10   33 1
  20   10   34 1
  21   11   12 ar
  22   11   16 ar
  23   12   13 ar
  24   12   17 1
  25   13   14 ar
  26   13   35 1
  27   14   15 ar
  28   14   36 1
  29   15   16 ar
  30   15   28 1
  31   16   37 1
  32   17   18 am
  33   17   38 1
  34   18   19 1
  35   18   25 2
  36   19   20 ar
  37   19   24 ar
  38   20   21 ar
  39   20   39 1
  40   21   22 ar
  41   21   40 1
  42   22   23 ar
  43   22   41 1
  44   23   24 ar
  45   23   42 1

#	End of record

