#	Name: ASD03731761
#	Creating user name:	WinNT
#	Creation time:	15. 06. 2019 20:46

#	Modifying user name:	WinNT
#	Modification time:	15. 06. 2019 20:46

#	Program:	/corina/corina34_cracker 3.40 0067  02.08.2006

@<TRIPOS>MOLECULE
ASD03731761
  37   38    0    0    0
SMALL
NO_CHARGES


@<TRIPOS>ATOM
   1 C1             0.3765     1.0887     1.9843 C.2     
   2 C2             0.2926    -0.2841     1.4567 C.ar    
   3 C3             1.3793    -0.8404     0.7653 C.ar    
   4 C4             1.2920    -2.1324     0.2728 C.ar    
   5 C5             0.1320    -2.8717     0.4644 C.ar    
   6 C6            -0.9456    -2.3201     1.1500 C.ar    
   7 C7            -0.8683    -1.0398     1.6481 C.ar    
   8 O8             1.3892     1.7421     1.8209 O.2     
   9 N9            -0.6709     1.6226     2.6433 N.am    
  10 S10           -0.5766     3.1659     3.2364 S.o2    
  11 O11           -1.8282     3.3723     3.8767 O.2     
  12 O12            0.6365     3.1834     3.9761 O.2     
  13 C13           -0.4370     4.2105     1.7599 C.3     
  14 O14            2.5115    -0.1155     0.5792 O.3     
  15 C15            3.5202    -0.2178     1.5862 C.3     
  16 F16            2.3351    -2.6730    -0.3941 F       
  17 O17            0.0491    -4.1373    -0.0196 O.3     
  18 C18           -1.1393    -4.7868     0.0928 C.ar    
  19 C19           -2.0931    -4.6679    -0.9077 C.ar    
  20 C20           -3.3017    -5.3303    -0.7913 C.ar    
  21 C21           -3.5590    -6.1119     0.3242 C.ar    
  22 C22           -2.6082    -6.2304     1.3215 C.ar    
  23 C23           -1.3978    -5.5741     1.2055 C.ar    
  24 F24           -4.2317    -5.2152    -1.7645 F       
  25 Cl25          -5.0765    -6.9425     0.4698 Cl      
  26 H26           -1.8448    -2.9004     1.2951 H       
  27 H27           -1.7056    -0.6172     2.1836 H       
  28 H28           -1.4801     1.1029     2.7701 H       
  29 H29           -1.3158     4.0694     1.1306 H       
  30 H30           -0.3690     5.2562     2.0598 H       
  31 H31            0.4576     3.9335     1.2022 H       
  32 H32            4.3692     0.4097     1.3151 H       
  33 H33            3.1143     0.1133     2.5420 H       
  34 H34            3.8466    -1.2545     1.6695 H       
  35 H35           -1.8921    -4.0585    -1.7764 H       
  36 H36           -2.8104    -6.8398     2.1899 H       
  37 H37           -0.6543    -5.6710     1.9829 H       
@<TRIPOS>BOND
   1    1    2 1
   2    1    8 2
   3    1    9 am
   4    2    3 ar
   5    2    7 ar
   6    3    4 ar
   7    3   14 1
   8    4    5 ar
   9    4   16 1
  10    5    6 ar
  11    5   17 1
  12    6    7 ar
  13    6   26 1
  14    7   27 1
  15    9   10 am
  16    9   28 1
  17   10   11 2
  18   10   12 2
  19   10   13 1
  20   13   29 1
  21   13   30 1
  22   13   31 1
  23   14   15 1
  24   15   32 1
  25   15   33 1
  26   15   34 1
  27   17   18 1
  28   18   19 ar
  29   18   23 ar
  30   19   20 ar
  31   19   35 1
  32   20   21 ar
  33   20   24 1
  34   21   22 ar
  35   21   25 1
  36   22   23 ar
  37   22   36 1
  38   23   37 1

#	End of record

