#	Name: ASD01910982
#	Creating user name:	WinNT
#	Creation time:	15. 06. 2019 19:56

#	Modifying user name:	WinNT
#	Modification time:	15. 06. 2019 19:56

#	Program:	/corina/corina34_cracker 3.40 0067  02.08.2006

@<TRIPOS>MOLECULE
ASD01910982
  51   54    0    0    0
SMALL
NO_CHARGES


@<TRIPOS>ATOM
   1 N1            -4.4917    -3.3063     1.1878 N.3     
   2 C2            -3.1205    -2.8202     1.3916 C.3     
   3 C3            -2.4469    -2.6160     0.0304 C.3     
   4 N4            -3.3016    -1.7418    -0.7873 N.am    
   5 C5            -4.7238    -2.0905    -0.9252 C.3     
   6 C6            -5.3077    -2.3155     0.4736 C.3     
   7 C7            -2.7951    -0.6500    -1.3938 C.2     
   8 C8            -3.6367     0.1407    -2.3136 C.ar    
   9 C9            -3.5653     1.5373    -2.3009 C.ar    
  10 C10           -4.3486     2.2804    -3.1572 C.ar    
  11 C11           -5.2144     1.6489    -4.0383 C.ar    
  12 C12           -5.2952     0.2467    -4.0600 C.ar    
  13 C13           -4.4986    -0.5050    -3.1991 C.ar    
  14 C14           -6.1883    -0.4078    -4.9681 C.1     
  15 O15           -1.6451    -0.3162    -1.1834 O.2     
  16 C16           -6.9206    -0.9443    -5.7126 C.1     
  17 C17           -7.8137    -1.5988    -6.6206 C.ar    
  18 N18           -7.8844    -2.9266    -6.6351 N.ar    
  19 C19           -8.6934    -3.5652    -7.4556 C.ar    
  20 C20           -9.5030    -2.8731    -8.3373 C.ar    
  21 C21           -9.4616    -1.4851    -8.3564 C.ar    
  22 C22           -8.6090    -0.8374    -7.4815 C.ar    
  23 C23           -5.0805    -3.6582     2.3974 C.ar    
  24 C24           -5.9404    -4.7541     2.4640 C.ar    
  25 N25           -6.4969    -5.0840     3.6148 N.ar    
  26 C26           -6.2395    -4.3764     4.7026 C.ar    
  27 C27           -5.3885    -3.2901     4.6397 C.ar    
  28 N28           -4.8218    -2.9559     3.4923 N.ar    
  29 O29           -5.9831     2.3855    -4.8784 O.3     
  30 C30           -5.8500     3.8062    -4.8019 C.3     
  31 Cl31          -6.2787    -5.6823     1.0365 Cl      
  32 H32           -3.1467    -1.8730     1.9302 H       
  33 H33           -2.5571    -3.5525     1.9699 H       
  34 H34           -1.4725    -2.1481     0.1706 H       
  35 H35           -2.3260    -3.5786    -0.4664 H       
  36 H36           -5.2547    -1.2753    -1.4168 H       
  37 H37           -4.8218    -3.0026    -1.5139 H       
  38 H38           -6.3306    -2.6817     0.3862 H       
  39 H39           -5.3034    -1.3752     1.0251 H       
  40 H40           -2.8940     2.0354    -1.6171 H       
  41 H41           -4.2885     3.3586    -3.1421 H       
  42 H42           -4.5558    -1.5834    -3.2106 H       
  43 H43           -8.7244    -4.6446    -7.4395 H       
  44 H44          -10.1617    -3.4075    -9.0058 H       
  45 H45          -10.0850    -0.9238    -9.0365 H       
  46 H46           -8.5521     0.2411    -7.4696 H       
  47 H47           -6.6963    -4.6488     5.6425 H       
  48 H48           -5.1820    -2.7152     5.5303 H       
  49 H49           -6.5187     4.2732    -5.5249 H       
  50 H50           -6.1091     4.1419    -3.7978 H       
  51 H51           -4.8207     4.0872    -5.0246 H       
@<TRIPOS>BOND
   1    1    2 1
   2    1   23 1
   3    1    6 1
   4    2    3 1
   5    2   32 1
   6    2   33 1
   7    3    4 1
   8    3   34 1
   9    3   35 1
  10    4    5 1
  11    4    7 am
  12    5    6 1
  13    5   36 1
  14    5   37 1
  15    6   38 1
  16    6   39 1
  17    7    8 1
  18    7   15 2
  19    8    9 ar
  20    8   13 ar
  21    9   10 ar
  22    9   40 1
  23   10   11 ar
  24   10   41 1
  25   11   12 ar
  26   11   29 1
  27   12   13 ar
  28   12   14 1
  29   13   42 1
  30   14   16 3
  31   16   17 1
  32   17   18 ar
  33   17   22 ar
  34   18   19 ar
  35   19   20 ar
  36   19   43 1
  37   20   21 ar
  38   20   44 1
  39   21   22 ar
  40   21   45 1
  41   22   46 1
  42   23   24 ar
  43   23   28 ar
  44   24   25 ar
  45   24   31 1
  46   25   26 ar
  47   26   27 ar
  48   26   47 1
  49   27   28 ar
  50   27   48 1
  51   29   30 1
  52   30   49 1
  53   30   50 1
  54   30   51 1

#	End of record

