#	Name: ASD01912800
#	Creating user name:	WinNT
#	Creation time:	15. 06. 2019 20:00

#	Modifying user name:	WinNT
#	Modification time:	15. 06. 2019 20:00

#	Program:	/corina/corina34_cracker 3.40 0067  02.08.2006

@<TRIPOS>MOLECULE
ASD01912800
  46   49    0    0    0
SMALL
NO_CHARGES


@<TRIPOS>ATOM
   1 C1            -0.0165     1.3669     0.0096 C.2     
   2 N2             0.0021    -0.0041     0.0020 N.pl3   
   3 C3            -1.2023    -0.6921     0.0098 C.2     
   4 C4            -2.3629    -0.0500     0.0239 C.2     
   5 N5            -2.4359     1.3309     0.0320 N.am    
   6 C6            -1.3019     2.0668     0.0309 C.2     
   7 C7             1.3014     1.7837    -0.0008 C.2     
   8 C8             2.0550     0.6110    -0.0143 C.2     
   9 N9             1.2244    -0.4045    -0.0118 N.2     
  10 O10           -1.3488     3.2837     0.0380 O.2     
  11 C11           -3.6787     1.9639     0.0468 C.ar    
  12 C12            3.5595     0.5249    -0.0295 C.3     
  13 O13            4.1120     1.8427    -0.0282 O.3     
  14 C14            5.4650     1.9434    -0.0410 C.ar    
  15 C15            6.0614     3.1975    -0.0404 C.ar    
  16 C16            7.4427     3.2864    -0.0535 C.ar    
  17 C17            8.1815     2.1117    -0.0669 C.ar    
  18 C18            7.5216     0.8986    -0.0666 C.ar    
  19 N19            6.2034     0.8459    -0.0485 N.ar    
  20 N20           -3.7442     3.2826    -0.0512 N.ar    
  21 C21           -4.8372     1.2041     0.1585 C.ar    
  22 C22           -6.0639     1.8450     0.1719 C.ar    
  23 C23           -6.0890     3.2291     0.0727 C.ar    
  24 C24           -4.8984     3.9205    -0.0413 C.ar    
  25 C25           -4.9186     5.4235    -0.1495 C.3     
  26 C26           -5.1276     5.8270    -1.6104 C.3     
  27 C27           -6.0611     5.9808     0.7020 C.3     
  28 H28           -1.1950    -1.7721     0.0039 H       
  29 H29           -3.2784    -0.6229     0.0288 H       
  30 H30            1.6684     2.7994     0.0012 H       
  31 H31            3.9016    -0.0134     0.8543 H       
  32 H32            3.8840    -0.0042    -0.9255 H       
  33 H33            5.4556     4.0916    -0.0302 H       
  34 H34            7.9343     4.2481    -0.0538 H       
  35 H35            9.2609     2.1458    -0.0777 H       
  36 H36            8.0918    -0.0185    -0.0774 H       
  37 H37           -4.7809     0.1282     0.2335 H       
  38 H38           -6.9809     1.2807     0.2573 H       
  39 H39           -7.0296     3.7597     0.0797 H       
  40 H40           -3.9703     5.8261     0.2066 H       
  41 H41           -5.1421     6.9141    -1.6886 H       
  42 H42           -4.3136     5.4299    -2.2170 H       
  43 H43           -6.0759     5.4243    -1.9665 H       
  44 H44           -5.9122     5.6934     1.7428 H       
  45 H45           -6.0757     7.0679     0.6238 H       
  46 H46           -7.0094     5.5782     0.3460 H       
@<TRIPOS>BOND
   1    1    2 1
   2    1    7 2
   3    1    6 1
   4    2    3 1
   5    2    9 1
   6    3    4 2
   7    3   28 1
   8    4    5 1
   9    4   29 1
  10    5    6 am
  11    5   11 1
  12    6   10 2
  13    7    8 1
  14    7   30 1
  15    8    9 2
  16    8   12 1
  17   11   21 ar
  18   11   20 ar
  19   12   13 1
  20   12   31 1
  21   12   32 1
  22   13   14 1
  23   14   15 ar
  24   14   19 ar
  25   15   16 ar
  26   15   33 1
  27   16   17 ar
  28   16   34 1
  29   17   18 ar
  30   17   35 1
  31   18   19 ar
  32   18   36 1
  33   20   24 ar
  34   21   22 ar
  35   21   37 1
  36   22   23 ar
  37   22   38 1
  38   23   24 ar
  39   23   39 1
  40   24   25 1
  41   25   26 1
  42   25   27 1
  43   25   40 1
  44   26   41 1
  45   26   42 1
  46   26   43 1
  47   27   44 1
  48   27   45 1
  49   27   46 1

#	End of record

