#	Name: ASD05740197
#	Creating user name:	WinNT
#	Creation time:	15. 06. 2019 21:03

#	Modifying user name:	WinNT
#	Modification time:	15. 06. 2019 21:03

#	Program:	/corina/corina34_cracker 3.40 0067  02.08.2006

@<TRIPOS>MOLECULE
ASD05740197
  60   64    0    0    0
SMALL
NO_CHARGES


@<TRIPOS>ATOM
   1 C1             0.5943    -4.2669    -3.3287 C.3     
   2 N2             0.3130    -3.6752    -2.0133 N.3     
   3 C3            -1.0643    -3.6212    -1.7719 C.ar    
   4 C4            -1.5400    -3.0936    -0.5786 C.ar    
   5 C5            -2.8990    -3.0403    -0.3404 C.ar    
   6 C6            -3.7901    -3.5148    -1.2940 C.ar    
   7 C7            -3.3145    -4.0428    -2.4870 C.ar    
   8 C8            -1.9558    -4.0900    -2.7280 C.ar    
   9 N9            -5.1688    -3.4611    -1.0521 N.pl3   
  10 C10           -5.7152    -2.3673    -0.4097 C.ar    
  11 N11           -4.9372    -1.3206    -0.1561 N.ar    
  12 N12           -6.9967    -2.3995    -0.0746 N.ar    
  13 C13           -7.5547    -1.3666     0.5435 C.ar    
  14 C14           -6.7567    -0.2383     0.8346 C.ar    
  15 C15           -5.4096    -0.2494     0.4556 C.ar    
  16 N16           -8.8779    -1.3701     0.9024 N.am    
  17 C17           -9.4274    -0.3140     1.5281 C.2     
  18 C18           -8.6767     0.8370     1.8419 C.2     
  19 C19           -7.3597     0.9041     1.5143 C.2     
  20 C20           -9.7051    -2.5407     0.5997 C.3     
  21 O21          -10.6071    -0.3532     1.8319 O.2     
  22 C22            1.0058    -4.4134    -0.9480 C.3     
  23 C23            2.5140    -4.3816    -1.2067 C.3     
  24 N24            2.7953    -4.9732    -2.5222 N.3     
  25 C25            2.1025    -4.2350    -3.5875 C.3     
  26 C26           -9.7604    -3.4423     1.8060 C.ar    
  27 C27            4.2412    -5.0299    -2.7756 C.3     
  28 C28           -8.8788    -4.5015     1.9078 C.ar    
  29 N29          -10.6459    -3.2080     2.7548 N.ar    
  30 C30           -8.9376    -5.3249     3.0220 C.ar    
  31 C31           -9.8852    -5.0504     3.9960 C.ar    
  32 C32          -10.7304    -3.9697     3.8277 C.ar    
  33 C33           -7.8666    -4.7589     0.8214 C.3     
  34 H34            0.2442    -5.2989    -3.3457 H       
  35 H35            0.0806    -3.6954    -4.1018 H       
  36 H36           -0.8469    -2.7252     0.1633 H       
  37 H37           -3.2689    -2.6300     0.5876 H       
  38 H38           -4.0076    -4.4124    -3.2283 H       
  39 H39           -1.5859    -4.5006    -3.6559 H       
  40 H40           -5.7398    -4.1922    -1.3358 H       
  41 H41           -4.7702     0.5960     0.6626 H       
  42 H42           -9.1496     1.6678     2.3444 H       
  43 H43           -6.7744     1.7806     1.7499 H       
  44 H44          -10.7133    -2.2163     0.3421 H       
  45 H45           -9.2724    -3.0839    -0.2404 H       
  46 H46            0.7921    -3.9488     0.0146 H       
  47 H47            0.6603    -5.4471    -0.9379 H       
  48 H48            2.8642    -3.3495    -1.1897 H       
  49 H49            3.0277    -4.9530    -0.4336 H       
  50 H50            2.3162    -4.6996    -4.5500 H       
  51 H51            2.4480    -3.2013    -3.5975 H       
  52 H52            4.7208    -5.6384    -2.0089 H       
  53 H53            4.4212    -5.4719    -3.7556 H       
  54 H54            4.6543    -4.0215    -2.7503 H       
  55 H55           -8.2615    -6.1604     3.1283 H       
  56 H56           -9.9596    -5.6709     4.8768 H       
  57 H57          -11.4711    -3.7489     4.5821 H       
  58 H58           -6.9919    -4.1289     0.9832 H       
  59 H59           -7.5685    -5.8071     0.8435 H       
  60 H60           -8.3072    -4.5268    -0.1482 H       
@<TRIPOS>BOND
   1    1    2 1
   2    1   25 1
   3    1   34 1
   4    1   35 1
   5    2    3 1
   6    2   22 1
   7    3    4 ar
   8    3    8 ar
   9    4    5 ar
  10    4   36 1
  11    5    6 ar
  12    5   37 1
  13    6    7 ar
  14    6    9 1
  15    7    8 ar
  16    7   38 1
  17    8   39 1
  18    9   10 1
  19    9   40 1
  20   10   11 ar
  21   10   12 ar
  22   11   15 ar
  23   12   13 ar
  24   13   14 ar
  25   13   16 1
  26   14   15 ar
  27   14   19 1
  28   15   41 1
  29   16   17 am
  30   16   20 1
  31   17   18 1
  32   17   21 2
  33   18   19 2
  34   18   42 1
  35   19   43 1
  36   20   26 1
  37   20   44 1
  38   20   45 1
  39   22   23 1
  40   22   46 1
  41   22   47 1
  42   23   24 1
  43   23   48 1
  44   23   49 1
  45   24   25 1
  46   24   27 1
  47   25   50 1
  48   25   51 1
  49   26   29 ar
  50   26   28 ar
  51   27   52 1
  52   27   53 1
  53   27   54 1
  54   28   30 ar
  55   28   33 1
  56   29   32 ar
  57   30   31 ar
  58   30   55 1
  59   31   32 ar
  60   31   56 1
  61   32   57 1
  62   33   58 1
  63   33   59 1
  64   33   60 1

#	End of record

