#	Name: ASD00070083
#	Creating user name:	WinNT
#	Creation time:	15. 06. 2019 18:30

#	Modifying user name:	WinNT
#	Modification time:	15. 06. 2019 18:30

#	Program:	/corina/corina34_cracker 3.40 0067  02.08.2006

@<TRIPOS>MOLECULE
ASD00070083
  74   77    0    0    0
SMALL
NO_CHARGES


@<TRIPOS>ATOM
   1 C1            -0.0184     1.5028     0.0103 C.2     
   2 C2             0.0021    -0.0041     0.0020 C.3     
   3 C3             1.4513    -0.4944    -0.0145 C.3     
   4 C4             1.4717    -2.0012    -0.0227 C.2     
   5 O5             1.0236     2.1234     0.0037 O.2     
   6 N6            -1.1946     2.1607     0.0195 N.am    
   7 O7             0.4298    -2.6219    -0.0161 O.2     
   8 N8             2.6479    -2.6591    -0.0375 N.am    
   9 C9             2.6678    -4.1240    -0.0456 C.3     
  10 C10            3.9065    -1.9094    -0.0455 C.3     
  11 C11           -1.2145     3.6256     0.0275 C.3     
  12 C12           -2.5315     4.1210    -0.5732 C.3     
  13 C13           -2.5522     5.6509    -0.5648 C.3     
  14 C14           -2.4266     6.1547     0.8744 C.3     
  15 C15           -1.1096     5.6592     1.4751 C.3     
  16 C16           -1.0888     4.1294     1.4667 C.3     
  17 C17           -2.4474     7.6846     0.8828 C.3     
  18 C18           -2.4475     8.1867     2.3281 C.3     
  19 N19           -2.4674     9.6555     2.3362 N.3     
  20 C20           -2.7062    10.1711     3.6902 C.3     
  21 C21           -2.8652    11.6923     3.6376 C.3     
  22 C22           -1.5944    12.3135     3.0515 C.3     
  23 C23           -1.3419    11.7238     1.6611 C.3     
  24 C24           -1.2270    10.2018     1.7711 C.3     
  25 O25           -0.1300    16.6738     4.2829 O.3     
  26 C26            0.9559    15.7746     4.5638 C.3     
  27 C27            0.2716    14.3876     4.5232 C.3     
  28 C28           -0.9151    14.6506     3.6164 C.ar    
  29 C29           -1.0650    16.0292     3.5322 C.ar    
  30 C30           -1.7681    13.8064     2.9414 C.ar    
  31 C31           -2.7847    14.3293     2.1614 C.ar    
  32 C32           -2.9392    15.6996     2.0636 C.ar    
  33 C33           -2.0875    16.5473     2.7417 C.ar    
  34 H34           -0.4983    -0.3791     0.8948 H       
  35 H35           -0.5153    -0.3696    -0.8850 H       
  36 H36            1.9516    -0.1193    -0.9073 H       
  37 H37            1.9686    -0.1289     0.8726 H       
  38 H38           -2.0280     1.6644     0.0207 H       
  39 H39            1.6452    -4.5013    -0.0378 H       
  40 H40            3.1780    -4.4755    -0.9424 H       
  41 H41            3.1950    -4.4851     0.8375 H       
  42 H42            4.2285    -1.7290     0.9801 H       
  43 H43            4.6691    -2.4854    -0.5697 H       
  44 H44            3.7584    -0.9561    -0.5528 H       
  45 H45           -0.3805     4.0035    -0.5638 H       
  46 H46           -2.6210     3.7621    -1.5985 H       
  47 H47           -3.3655     3.7431     0.0182 H       
  48 H48           -1.7182     6.0288    -1.1561 H       
  49 H49           -3.4905     6.0039    -0.9927 H       
  50 H50           -3.2606     5.7768     1.4658 H       
  51 H51           -0.2756     6.0372     0.8838 H       
  52 H52           -1.0201     6.0182     2.5004 H       
  53 H53           -1.9228     3.7515     2.0581 H       
  54 H54           -0.1506     3.7764     1.8947 H       
  55 H55           -1.5649     8.0627     0.3669 H       
  56 H56           -3.3446     8.0386     0.3752 H       
  57 H57           -3.3300     7.8085     2.8441 H       
  58 H58           -1.5502     7.8327     2.8358 H       
  59 H59           -3.6149     9.7247     4.0939 H       
  60 H60           -1.8614     9.9163     4.3301 H       
  61 H61           -3.7183    11.9474     3.0089 H       
  62 H62           -3.0269    12.0764     4.6448 H       
  63 H63           -0.7475    12.0913     3.7007 H       
  64 H64           -2.1710    11.9795     1.0013 H       
  65 H65           -0.4152    12.1304     1.2562 H       
  66 H66           -0.3891     9.9467     2.4199 H       
  67 H67           -1.0614     9.7776     0.7807 H       
  68 H68            1.7262    15.8477     3.7961 H       
  69 H69            1.3736    15.9702     5.5513 H       
  70 H70            0.9345    13.6386     4.0899 H       
  71 H71           -0.0573    14.0862     5.5177 H       
  72 H72           -3.4548    13.6692     1.6307 H       
  73 H73           -3.7304    16.1088     1.4530 H       
  74 H74           -2.2153    17.6167     2.6601 H       
@<TRIPOS>BOND
   1    1    2 1
   2    1    5 2
   3    1    6 am
   4    2    3 1
   5    2   34 1
   6    2   35 1
   7    3    4 1
   8    3   36 1
   9    3   37 1
  10    4    7 2
  11    4    8 am
  12    6   11 1
  13    6   38 1
  14    8    9 1
  15    8   10 1
  16    9   39 1
  17    9   40 1
  18    9   41 1
  19   10   42 1
  20   10   43 1
  21   10   44 1
  22   11   12 1
  23   11   16 1
  24   11   45 1
  25   12   13 1
  26   12   46 1
  27   12   47 1
  28   13   14 1
  29   13   48 1
  30   13   49 1
  31   14   15 1
  32   14   17 1
  33   14   50 1
  34   15   16 1
  35   15   51 1
  36   15   52 1
  37   16   53 1
  38   16   54 1
  39   17   18 1
  40   17   55 1
  41   17   56 1
  42   18   19 1
  43   18   57 1
  44   18   58 1
  45   19   20 1
  46   19   24 1
  47   20   21 1
  48   20   59 1
  49   20   60 1
  50   21   22 1
  51   21   61 1
  52   21   62 1
  53   22   23 1
  54   22   30 1
  55   22   63 1
  56   23   24 1
  57   23   64 1
  58   23   65 1
  59   24   66 1
  60   24   67 1
  61   25   26 1
  62   25   29 1
  63   26   27 1
  64   26   68 1
  65   26   69 1
  66   27   28 1
  67   27   70 1
  68   27   71 1
  69   28   29 ar
  70   28   30 ar
  71   29   33 ar
  72   30   31 ar
  73   31   32 ar
  74   31   72 1
  75   32   33 ar
  76   32   73 1
  77   33   74 1

#	End of record

