#	Name: ASD01915145
#	Creating user name:	WinNT
#	Creation time:	15. 06. 2019 20:04

#	Modifying user name:	WinNT
#	Modification time:	15. 06. 2019 20:04

#	Program:	/corina/corina34_cracker 3.40 0067  02.08.2006

@<TRIPOS>MOLECULE
ASD01915145
  39   42    0    0    0
SMALL
NO_CHARGES


@<TRIPOS>ATOM
   1 C1            -0.0169     1.3920     0.0097 C.ar    
   2 C2             0.0021    -0.0041     0.0020 C.ar    
   3 N3            -1.1430    -0.6902     0.0099 N.ar    
   4 C4            -2.3137    -0.0964     0.0250 C.ar    
   5 C5            -2.4136     1.2863     0.0334 C.ar    
   6 C6            -1.2654     2.0476     0.0306 C.ar    
   7 C7             1.3290     1.9588    -0.0001 C.2     
   8 C8             2.3070     1.0531    -0.0143 C.2     
   9 S9             1.6657    -0.5777    -0.0169 S.3     
  10 C10            1.5855     3.4159     0.0048 C.ar    
  11 C11            1.2136     4.1863     1.1090 C.ar    
  12 S12            4.0247     1.4455    -0.0291 S.o2    
  13 O13            4.6888     0.3193    -0.5858 O.2     
  14 O14            4.1323     2.7560    -0.5680 O.2     
  15 C15            4.5497     1.5531     1.6494 C.ar    
  16 C16            5.0208     0.4298     2.2964 C.ar    
  17 C17            4.4936     2.7657     2.3139 C.ar    
  18 C18            4.9046     2.8594     3.6315 C.ar    
  19 C19            5.3736     1.7426     4.2922 C.ar    
  20 C20            5.4368     0.5170     3.6266 C.ar    
  21 C21            1.4504     5.5316     1.1146 C.ar    
  22 C22            2.0654     6.1375     0.0143 C.ar    
  23 C23            2.4373     5.3653    -1.0908 C.ar    
  24 C24            2.2045     4.0193    -1.0924 C.ar    
  25 C25            5.9221    -0.6463     4.3062 C.1     
  26 N26            6.3070    -1.5692     4.8453 N.1     
  27 C27            2.3136     7.5478     0.0190 C.1     
  28 N28            2.5105     8.6666     0.0228 N.1     
  29 H29           -3.2130    -0.6944     0.0305 H       
  30 H30           -3.3829     1.7624     0.0454 H       
  31 H31           -1.3204     3.1262     0.0370 H       
  32 H32            0.7385     3.7183     1.9585 H       
  33 H33            5.0675    -0.5152     1.7755 H       
  34 H34            4.1277     3.6431     1.8013 H       
  35 H35            4.8586     3.8089     4.1440 H       
  36 H36            5.6948     1.8173     5.3206 H       
  37 H37            1.1626     6.1272     1.9683 H       
  38 H38            2.9122     5.8324    -1.9409 H       
  39 H39            2.4916     3.4228    -1.9457 H       
@<TRIPOS>BOND
   1    1    2 ar
   2    1    7 1
   3    1    6 ar
   4    2    3 ar
   5    2    9 1
   6    3    4 ar
   7    4    5 ar
   8    4   29 1
   9    5    6 ar
  10    5   30 1
  11    6   31 1
  12    7    8 2
  13    7   10 1
  14    8    9 1
  15    8   12 1
  16   10   11 ar
  17   10   24 ar
  18   11   21 ar
  19   11   32 1
  20   12   13 2
  21   12   14 2
  22   12   15 1
  23   15   16 ar
  24   15   17 ar
  25   16   20 ar
  26   16   33 1
  27   17   18 ar
  28   17   34 1
  29   18   19 ar
  30   18   35 1
  31   19   20 ar
  32   19   36 1
  33   20   25 1
  34   21   22 ar
  35   21   37 1
  36   22   23 ar
  37   22   27 1
  38   23   24 ar
  39   23   38 1
  40   24   39 1
  41   25   26 3
  42   27   28 3

#	End of record

