#	Name: ASD02038683
#	Creating user name:	WinNT
#	Creation time:	15. 06. 2019 20:17

#	Modifying user name:	WinNT
#	Modification time:	15. 06. 2019 20:17

#	Program:	/corina/corina34_cracker 3.40 0067  02.08.2006

@<TRIPOS>MOLECULE
ASD02038683
  58   58    0    0    0
SMALL
NO_CHARGES


@<TRIPOS>ATOM
   1 C1             0.0729     1.5773    -0.5431 C.ar    
   2 C2             0.0523     0.1986    -0.4450 C.ar    
   3 C3             1.2385    -0.5059    -0.3585 C.ar    
   4 C4             1.2160    -2.0089    -0.2511 C.3     
   5 C5             1.2519    -2.6210    -1.6529 C.3     
   6 C6             1.2295    -4.1240    -1.5455 C.2     
   7 N7             1.2546    -4.8797    -2.6612 N.am    
   8 N8             1.2338    -6.2770    -2.5614 N.am    
   9 C9             0.1061    -6.9564    -2.8496 C.2     
  10 C10           -2.1376    -7.0010    -3.6417 C.ar    
  11 C11            1.2796     2.2515    -0.5545 C.ar    
  12 C12            2.4658     1.5470    -0.4680 C.ar    
  13 C13            2.4453     0.1682    -0.3709 C.ar    
  14 N14           -1.0016    -6.2917    -3.2339 N.am    
  15 O15            1.1888    -4.6535    -0.4552 O.2     
  16 C16            2.4378    -6.9996    -2.1436 C.3     
  17 C17            2.3816    -7.2559    -0.6363 C.3     
  18 C18            3.6390    -8.0105    -0.2000 C.3     
  19 C19            3.5827    -8.2668     1.3073 C.3     
  20 O20            0.0880    -8.1691    -2.7630 O.2     
  21 C21           -3.4045    -6.5081    -3.3575 C.ar    
  22 C22           -4.5239    -7.2091    -3.7609 C.ar    
  23 C23           -4.3846    -8.4020    -4.4481 C.ar    
  24 C24           -3.1228    -8.8962    -4.7330 C.ar    
  25 C25           -1.9994    -8.1953    -4.3357 C.ar    
  26 Cl26          -2.9516   -10.3931    -5.5953 Cl      
  27 Cl27          -5.7939    -9.2808    -4.9533 Cl      
  28 C28            1.3020     3.7545    -0.6619 C.3     
  29 H29           -0.8537     2.1275    -0.6152 H       
  30 H30           -0.8905    -0.3281    -0.4357 H       
  31 H31            2.0846    -2.3457     0.3147 H       
  32 H32            0.3057    -2.3232     0.2593 H       
  33 H33            0.3834    -2.2841    -2.2188 H       
  34 H34            2.1623    -2.3067    -2.1634 H       
  35 H35            1.2872    -4.4562    -3.5332 H       
  36 H36            3.4086     2.0737    -0.4777 H       
  37 H37            3.3720    -0.3822    -0.3030 H       
  38 H38           -1.0117    -5.3217    -3.2280 H       
  39 H39            2.4921    -7.9513    -2.6722 H       
  40 H40            3.3193    -6.4029    -2.3781 H       
  41 H41            2.3272    -6.3042    -0.1077 H       
  42 H42            1.5000    -7.8526    -0.4019 H       
  43 H43            3.6933    -8.9622    -0.7286 H       
  44 H44            4.5205    -7.4138    -0.4345 H       
  45 H45            3.5284    -7.3151     1.8359 H       
  46 H46            2.7012    -8.8635     1.5417 H       
  47 H47            4.4786    -8.8045     1.6181 H       
  48 H48           -3.5142    -5.5773    -2.8209 H       
  49 H49           -5.5091    -6.8259    -3.5396 H       
  50 H50           -1.0152    -8.5806    -4.5579 H       
  51 H51            1.2761     4.1905     0.3368 H       
  52 H52            2.2126     4.0688    -1.1720 H       
  53 H53            0.4337     4.0914    -1.2281 H       
  54 S54           11.8279    10.8504     6.8450 S.3     
  55 O55           11.8504     9.1905     6.8359 O.2     
  56 O56           13.2541    11.6998     6.8360 O.2     
  57 N57           10.3539    11.6749     6.8565 N.2     
  58 H58            9.5205    11.1785     6.8577 H       
@<TRIPOS>BOND
   1    1    2 ar
   2    1   11 ar
   3    1   29 1
   4    2    3 ar
   5    2   30 1
   6    3    4 1
   7    3   13 ar
   8    4    5 1
   9    4   31 1
  10    4   32 1
  11    5    6 1
  12    5   33 1
  13    5   34 1
  14    6    7 am
  15    6   15 2
  16    7    8 1
  17    7   35 1
  18    8    9 am
  19    8   16 1
  20    9   14 am
  21    9   20 2
  22   10   21 ar
  23   10   14 1
  24   10   25 ar
  25   11   12 ar
  26   11   28 1
  27   12   13 ar
  28   12   36 1
  29   13   37 1
  30   14   38 1
  31   16   17 1
  32   16   39 1
  33   16   40 1
  34   17   18 1
  35   17   41 1
  36   17   42 1
  37   18   19 1
  38   18   43 1
  39   18   44 1
  40   19   45 1
  41   19   46 1
  42   19   47 1
  43   21   22 ar
  44   21   48 1
  45   22   23 ar
  46   22   49 1
  47   23   24 ar
  48   23   27 1
  49   24   25 ar
  50   24   26 1
  51   25   50 1
  52   28   51 1
  53   28   52 1
  54   28   53 1
  55   54   55 2
  56   54   56 2
  57   54   57 2
  58   57   58 1

#	End of record

