#	Name: ASD03540435
#	Creating user name:	WinNT
#	Creation time:	15. 06. 2019 20:43

#	Modifying user name:	WinNT
#	Modification time:	15. 06. 2019 20:43

#	Program:	/corina/corina34_cracker 3.40 0067  02.08.2006

@<TRIPOS>MOLECULE
ASD03540435
  51   53    0    0    0
SMALL
NO_CHARGES


@<TRIPOS>ATOM
   1 C1            -0.0178     1.4608     0.0101 C.3     
   2 N2             0.0416    -2.0105     1.2421 N.am    
   3 C3             0.0222    -0.6690     1.1677 C.2     
   4 N4             0.0021    -0.0041     0.0020 N.am    
   5 C5            -0.0006    -0.6606    -1.1785 C.2     
   6 C6             0.0197    -2.1349    -1.1567 C.ar    
   7 C7             0.0179    -2.8819    -2.3279 C.ar    
   8 C8             0.0372    -4.2738    -2.2484 C.ar    
   9 C9             0.0581    -4.9053    -0.9987 C.ar    
  10 C10            0.0599    -4.1702     0.1530 C.ar    
  11 C11            0.0408    -2.7825     0.0934 C.ar    
  12 O12           -0.0197    -0.0522    -2.2310 O.2     
  13 O13            0.0232    -0.0295     2.2016 O.2     
  14 C14            0.0690    -2.6631     2.5534 C.3     
  15 C15            0.0351    -5.0829    -3.4835 C.2     
  16 N16            0.0537    -6.4284    -3.4076 N.am    
  17 O17            0.0165    -4.5354    -4.5688 O.2     
  18 C18            0.0516    -7.2312    -4.6331 C.3     
  19 C19            0.0748    -8.6948    -4.2748 C.ar    
  20 C20           -1.1125    -9.3810    -4.0982 C.ar    
  21 C21           -1.0940   -10.7227    -3.7698 C.ar    
  22 C22            0.1173   -11.3816    -3.6171 C.ar    
  23 C23            1.3073   -10.6908    -3.7948 C.ar    
  24 C24            1.2833    -9.3505    -4.1288 C.ar    
  25 O25            0.1383   -12.7013    -3.2936 O.3     
  26 C26            1.4213   -13.3145    -3.1527 C.3     
  27 C27            1.4176     1.9904    -0.0008 C.3     
  28 C28            1.3972     3.4972     0.0075 C.2     
  29 O29            2.5504     4.1841     0.0002 O.3     
  30 O30            0.3427     4.0870     0.0207 O.2     
  31 H31           -0.5450     1.8219    -0.8730 H       
  32 H32           -0.5280     1.8123     0.9069 H       
  33 H33            0.0013    -2.3900    -3.2892 H       
  34 H34            0.0727    -5.9838    -0.9448 H       
  35 H35            0.0758    -4.6687     1.1109 H       
  36 H36            0.0696    -1.9049     3.3366 H       
  37 H37           -0.8109    -3.2971     2.6622 H       
  38 H38            0.9687    -3.2727     2.6372 H       
  39 H39            0.0686    -6.8652    -2.5417 H       
  40 H40           -0.8474    -7.0123    -5.2093 H       
  41 H41            0.9323    -6.9887    -5.2278 H       
  42 H42           -2.0552    -8.8675    -4.2169 H       
  43 H43           -2.0216   -11.2582    -3.6316 H       
  44 H44            2.2515   -11.2015    -3.6765 H       
  45 H45            2.2093    -8.8134    -4.2719 H       
  46 H46            1.9674   -13.2347    -4.0926 H       
  47 H47            1.9801   -12.8107    -2.3640 H       
  48 H48            1.2951   -14.3658    -2.8939 H       
  49 H49            1.9448     1.6293     0.8823 H       
  50 H50            1.9278     1.6388    -0.8976 H       
  51 H51            2.4867     5.1490     0.0060 H       
@<TRIPOS>BOND
   1    1    4 1
   2    1   27 1
   3    1   31 1
   4    1   32 1
   5    2    3 am
   6    2   11 1
   7    2   14 1
   8    3    4 am
   9    3   13 2
  10    4    5 am
  11    5    6 1
  12    5   12 2
  13    6    7 ar
  14    6   11 ar
  15    7    8 ar
  16    7   33 1
  17    8    9 ar
  18    8   15 1
  19    9   10 ar
  20    9   34 1
  21   10   11 ar
  22   10   35 1
  23   14   36 1
  24   14   37 1
  25   14   38 1
  26   15   16 am
  27   15   17 2
  28   16   18 1
  29   16   39 1
  30   18   19 1
  31   18   40 1
  32   18   41 1
  33   19   20 ar
  34   19   24 ar
  35   20   21 ar
  36   20   42 1
  37   21   22 ar
  38   21   43 1
  39   22   23 ar
  40   22   25 1
  41   23   24 ar
  42   23   44 1
  43   24   45 1
  44   25   26 1
  45   26   46 1
  46   26   47 1
  47   26   48 1
  48   27   28 1
  49   27   49 1
  50   27   50 1
  51   28   29 1
  52   28   30 2
  53   29   51 1

#	End of record

