#	Name: ASD08070207
#	Creating user name:	WinNT
#	Creation time:	15. 06. 2019 21:14

#	Modifying user name:	WinNT
#	Modification time:	15. 06. 2019 21:14

#	Program:	/corina/corina34_cracker 3.40 0067  02.08.2006

@<TRIPOS>MOLECULE
ASD08070207
  34   35    0    0    0
SMALL
NO_CHARGES


@<TRIPOS>ATOM
   1 C1            -0.0158     1.3154     0.0093 C.ar    
   2 N2             0.0021    -0.0041     0.0020 N.ar    
   3 C3            -1.1066    -0.7183     0.0092 C.ar    
   4 C4            -2.3443    -0.1073     0.0243 C.ar    
   5 C5            -2.4124     1.2900     0.0325 C.ar    
   6 C6            -1.2147     2.0090     0.0302 C.ar    
   7 N7            -3.7634     3.3351     0.0564 N.am    
   8 C8            -3.7191     1.9881     0.0488 C.2     
   9 O9            -4.7508     1.3463     0.0552 O.2     
  10 C10           -5.0554     4.0255     0.0725 C.3     
  11 C11           -4.8833     5.4156     0.6880 C.3     
  12 C12           -5.5782     4.1626    -1.3588 C.3     
  13 C13           -6.9276     4.8836    -1.3420 C.3     
  14 C14           -6.7555     6.2737    -0.7265 C.3     
  15 C15           -6.2327     6.1365     0.7048 C.3     
  16 C16           -4.3605     5.2784     2.1194 C.3     
  17 F17            1.1498     1.9984     0.0018 F       
  18 H18           -1.0452    -1.7965     0.0028 H       
  19 H19           -3.2473    -0.6996     0.0294 H       
  20 H20           -1.2235     3.0889     0.0363 H       
  21 H21           -2.9398     3.8475     0.0513 H       
  22 H22           -5.7669     3.4510     0.6657 H       
  23 H23           -4.1718     5.9900     0.0948 H       
  24 H24           -4.8667     4.7371    -1.9520 H       
  25 H25           -5.7008     3.1723    -1.7973 H       
  26 H26           -7.3001     4.9813    -2.3618 H       
  27 H27           -7.6391     4.3091    -0.7489 H       
  28 H28           -6.0440     6.8481    -1.3197 H       
  29 H29           -7.7168     6.7873    -0.7146 H       
  30 H30           -6.9442     5.5621     1.2980 H       
  31 H31           -6.1101     7.1269     1.1433 H       
  32 H32           -3.3992     4.7648     2.1074 H       
  33 H33           -4.2379     6.2688     2.5579 H       
  34 H34           -5.0720     4.7040     2.7126 H       
@<TRIPOS>BOND
   1    1    2 ar
   2    1   17 1
   3    1    6 ar
   4    2    3 ar
   5    3    4 ar
   6    3   18 1
   7    4    5 ar
   8    4   19 1
   9    5    6 ar
  10    5    8 1
  11    6   20 1
  12    7    8 am
  13    7   10 1
  14    7   21 1
  15    8    9 2
  16   10   11 1
  17   10   12 1
  18   10   22 1
  19   11   16 1
  20   11   15 1
  21   11   23 1
  22   12   13 1
  23   12   24 1
  24   12   25 1
  25   13   14 1
  26   13   26 1
  27   13   27 1
  28   14   15 1
  29   14   28 1
  30   14   29 1
  31   15   30 1
  32   15   31 1
  33   16   32 1
  34   16   33 1
  35   16   34 1

#	End of record

