#	Name: ASD01180206
#	Creating user name:	WinNT
#	Creation time:	15. 06. 2019 19:07

#	Modifying user name:	WinNT
#	Modification time:	15. 06. 2019 19:07

#	Program:	/corina/corina34_cracker 3.40 0067  02.08.2006

@<TRIPOS>MOLECULE
ASD01180206
  65   67    0    0    0
SMALL
NO_CHARGES


@<TRIPOS>ATOM
   1 C1             0.7899     1.4250     0.9425 C.ar    
   2 C2             0.6488     0.0612     0.7943 C.ar    
   3 C3             1.7750    -0.7381     0.6057 C.ar    
   4 C4             3.0408    -0.1559     0.5674 C.ar    
   5 C5             3.1756     1.2084     0.7161 C.ar    
   6 C6             2.0520     2.0020     0.9038 C.ar    
   7 C7             1.6267    -2.2056     0.4465 C.ar    
   8 C8             2.7519    -3.0059     0.2579 C.ar    
   9 C9             2.6080    -4.3705     0.1103 C.ar    
  10 C10            1.3499    -4.9441     0.1489 C.ar    
  11 C11            0.2295    -4.1546     0.3354 C.ar    
  12 C12            0.3622    -2.7896     0.4908 C.ar    
  13 C13            1.1992    -6.4348    -0.0134 C.3     
  14 C14            1.0182    -7.0817     1.3613 C.3     
  15 N15            0.0273    -6.7194    -0.8452 N.pl3   
  16 C16            0.1215    -6.6404    -2.2243 C.ar    
  17 N17           -0.9668    -6.8024    -2.9643 N.ar    
  18 C18           -0.9246    -6.7356    -4.2787 C.ar    
  19 C19            0.2809    -6.4899    -4.9375 C.ar    
  20 C20            1.4486    -6.3145    -4.1789 C.ar    
  21 C21            1.3581    -6.3859    -2.8152 C.ar    
  22 C22            0.3273    -6.4162    -6.4103 C.2     
  23 N23           -0.7999    -6.5866    -7.1294 N.am    
  24 O24            1.3823    -6.2017    -6.9754 O.2     
  25 C25           -0.7538    -6.5134    -8.5918 C.3     
  26 C26           -2.1569    -6.7402    -9.1582 C.3     
  27 C27           -2.1096    -6.6649   -10.6626 C.2     
  28 O28           -3.2321    -6.8346   -11.3787 O.3     
  29 O29           -1.0612    -6.4517   -11.2241 O.2     
  30 C30            0.9775    -8.6034     1.2074 C.3     
  31 C31            2.3363    -9.1024     0.7120 C.3     
  32 C32            0.6610    -9.2445     2.5601 C.3     
  33 O33            2.1878     3.3460     1.0496 O.3     
  34 C34            0.9903     4.1023     1.2392 C.3     
  35 F35            0.3393     3.6625     2.3968 F       
  36 F36            1.3107     5.4578     1.3708 F       
  37 F37            0.1485     3.9271     0.1357 F       
  38 H38           -0.0828     2.0453     1.0842 H       
  39 H39           -0.3332    -0.3872     0.8248 H       
  40 H40            3.9153    -0.7728     0.4218 H       
  41 H41            4.1562     1.6600     0.6869 H       
  42 H42            3.7346    -2.5589     0.2269 H       
  43 H43            3.4793    -4.9917    -0.0360 H       
  44 H44           -0.7504    -4.6076     0.3640 H       
  45 H45           -0.5132    -2.1741     0.6364 H       
  46 H46            2.0910    -6.8402    -0.4912 H       
  47 H47            1.8519    -6.8039     2.0062 H       
  48 H48            0.0846    -6.7363     1.8053 H       
  49 H49           -0.8146    -6.9633    -0.4297 H       
  50 H50           -1.8300    -6.8723    -4.8514 H       
  51 H51            2.3963    -6.1230    -4.6602 H       
  52 H52            2.2382    -6.2553    -2.2030 H       
  53 H53           -1.6415    -6.7577    -6.6786 H       
  54 H54           -0.3940    -5.5303    -8.8953 H       
  55 H55           -0.0798    -7.2806    -8.9730 H       
  56 H56           -2.5168    -7.7233    -8.8548 H       
  57 H57           -2.8310    -5.9730    -8.7771 H       
  58 H58           -3.1520    -6.7775   -12.3407 H       
  59 H59            0.2059    -8.8752     0.4871 H       
  60 H60            2.2871   -10.1773     0.5377 H       
  61 H61            2.5927    -8.5949    -0.2180 H       
  62 H62            3.0971    -8.8906     1.4632 H       
  63 H63           -0.3071    -8.8890     2.9130 H       
  64 H64            0.6320   -10.3286     2.4505 H       
  65 H65            1.4326    -8.9726     3.2804 H       
@<TRIPOS>BOND
   1    1    2 ar
   2    1    6 ar
   3    1   38 1
   4    2    3 ar
   5    2   39 1
   6    3    4 ar
   7    3    7 1
   8    4    5 ar
   9    4   40 1
  10    5    6 ar
  11    5   41 1
  12    6   33 1
  13    7    8 ar
  14    7   12 ar
  15    8    9 ar
  16    8   42 1
  17    9   10 ar
  18    9   43 1
  19   10   11 ar
  20   10   13 1
  21   11   12 ar
  22   11   44 1
  23   12   45 1
  24   13   14 1
  25   13   15 1
  26   13   46 1
  27   14   30 1
  28   14   47 1
  29   14   48 1
  30   15   16 1
  31   15   49 1
  32   16   17 ar
  33   16   21 ar
  34   17   18 ar
  35   18   19 ar
  36   18   50 1
  37   19   20 ar
  38   19   22 1
  39   20   21 ar
  40   20   51 1
  41   21   52 1
  42   22   23 am
  43   22   24 2
  44   23   25 1
  45   23   53 1
  46   25   26 1
  47   25   54 1
  48   25   55 1
  49   26   27 1
  50   26   56 1
  51   26   57 1
  52   27   28 1
  53   27   29 2
  54   28   58 1
  55   30   31 1
  56   30   32 1
  57   30   59 1
  58   31   60 1
  59   31   61 1
  60   31   62 1
  61   32   63 1
  62   32   64 1
  63   32   65 1
  64   33   34 1
  65   34   35 1
  66   34   36 1
  67   34   37 1

#	End of record

