#	Name: ASD03360001
#	Creating user name:	WinNT
#	Creation time:	15. 06. 2019 20:40

#	Modifying user name:	WinNT
#	Modification time:	15. 06. 2019 20:40

#	Program:	/corina/corina34_cracker 3.40 0067  02.08.2006

@<TRIPOS>MOLECULE
ASD03360001
  31   32    0    0    0
SMALL
NO_CHARGES


@<TRIPOS>ATOM
   1 O1             0.1626     0.9469    -0.1879 O.3     
   2 N2            -0.0407    -0.2447     0.5495 N.2     
   3 C3            -1.2333    -0.7553     0.6446 C.2     
   4 C4            -1.4286    -2.0598     1.3168 C.ar    
   5 C5            -2.7019    -2.4510     1.7296 C.ar    
   6 C6            -2.8776    -3.6682     2.3558 C.ar    
   7 C7            -1.7939    -4.4995     2.5743 C.ar    
   8 C8            -0.5281    -4.1169     2.1671 C.ar    
   9 C9            -0.3406    -2.9051     1.5349 C.ar    
  10 C10            0.6472    -5.0287     2.4089 C.3     
  11 F11            0.2108    -6.1910     3.0536 F       
  12 F12            1.2348    -5.3667     1.1851 F       
  13 F13            1.5872    -4.3746     3.2126 F       
  14 N14           -2.3208    -0.0784     0.1167 N.pl3   
  15 C15           -3.4283    -0.7915    -0.3504 C.ar    
  16 C16           -4.6631    -0.1650    -0.4623 C.ar    
  17 C17           -5.7554    -0.8726    -0.9242 C.ar    
  18 C18           -5.6209    -2.2035    -1.2752 C.ar    
  19 C19           -4.3933    -2.8304    -1.1646 C.ar    
  20 C20           -3.2955    -2.1269    -0.7093 C.ar    
  21 H21            1.0651     1.2907    -0.1388 H       
  22 H22           -3.5488    -1.8026     1.5599 H       
  23 H23           -3.8631    -3.9721     2.6763 H       
  24 H24           -1.9363    -5.4509     3.0650 H       
  25 H25            0.6479    -2.6075     1.2174 H       
  26 H26           -2.3136     0.8905     0.0713 H       
  27 H27           -4.7688     0.8742    -0.1880 H       
  28 H28           -6.7157    -0.3863    -1.0110 H       
  29 H29           -6.4767    -2.7546    -1.6361 H       
  30 H30           -4.2918    -3.8699    -1.4392 H       
  31 H31           -2.3369    -2.6170    -0.6235 H       
@<TRIPOS>BOND
   1    1    2 1
   2    1   21 1
   3    2    3 2
   4    3    4 1
   5    3   14 1
   6    4    5 ar
   7    4    9 ar
   8    5    6 ar
   9    5   22 1
  10    6    7 ar
  11    6   23 1
  12    7    8 ar
  13    7   24 1
  14    8    9 ar
  15    8   10 1
  16    9   25 1
  17   10   11 1
  18   10   12 1
  19   10   13 1
  20   14   15 1
  21   14   26 1
  22   15   16 ar
  23   15   20 ar
  24   16   17 ar
  25   16   27 1
  26   17   18 ar
  27   17   28 1
  28   18   19 ar
  29   18   29 1
  30   19   20 ar
  31   19   30 1
  32   20   31 1

#	End of record

