#	Name: ASD01870386
#	Creating user name:	WinNT
#	Creation time:	15. 06. 2019 19:39

#	Modifying user name:	WinNT
#	Modification time:	15. 06. 2019 19:39

#	Program:	/corina/corina34_cracker 3.40 0067  02.08.2006

@<TRIPOS>MOLECULE
ASD01870386
  25   27    0    0    0
SMALL
NO_CHARGES


@<TRIPOS>ATOM
   1 C1            -0.0162     1.3436     0.0094 C.2     
   2 N2             0.0021    -0.0041     0.0020 N.am    
   3 O3             1.0292     1.9663     0.0028 O.2     
   4 C4             1.2110    -0.6803    -0.0132 C.2     
   5 O5             1.3625    -2.0138    -0.0218 O.3     
   6 C6             2.6868    -2.2774    -0.0358 C.2     
   7 C7             3.3274    -1.0986    -0.0356 C.2     
   8 N8             2.3973    -0.1252    -0.0272 N.2     
   9 C9            -1.2971     2.0600     0.0194 C.2     
  10 C10           -2.4826     1.4365     0.0221 C.2     
  11 S11           -3.7847     2.5297     0.0347 S.3     
  12 C12           -2.7266     3.9336     0.0369 C.ar    
  13 C13           -1.3944     3.5206     0.0336 C.ar    
  14 C14           -0.3760     4.4906     0.0399 C.ar    
  15 C15           -0.6925     5.8268     0.0535 C.ar    
  16 C16           -2.0190     6.2325     0.0615 C.ar    
  17 C17           -3.0286     5.2985     0.0458 C.ar    
  18 H18           -0.8313    -0.5005     0.0073 H       
  19 H19            3.1450    -3.2553    -0.0454 H       
  20 H20            4.3979    -0.9559    -0.0445 H       
  21 H21           -2.5981     0.3627     0.0163 H       
  22 H22            0.6593     4.1832     0.0344 H       
  23 H23            0.0953     6.5655     0.0582 H       
  24 H24           -2.2599     7.2852     0.0729 H       
  25 H25           -4.0593     5.6209     0.0528 H       
@<TRIPOS>BOND
   1    1    2 am
   2    1    3 2
   3    1    9 1
   4    2    4 1
   5    2   18 1
   6    4    5 1
   7    4    8 2
   8    5    6 1
   9    6    7 2
  10    6   19 1
  11    7    8 1
  12    7   20 1
  13    9   10 2
  14    9   13 1
  15   10   11 1
  16   10   21 1
  17   11   12 1
  18   12   17 ar
  19   12   13 ar
  20   13   14 ar
  21   14   15 ar
  22   14   22 1
  23   15   16 ar
  24   15   23 1
  25   16   17 ar
  26   16   24 1
  27   17   25 1

#	End of record

