#	Name: ASD01883450
#	Creating user name:	WinNT
#	Creation time:	15. 06. 2019 19:46

#	Modifying user name:	WinNT
#	Modification time:	15. 06. 2019 19:46

#	Program:	/corina/corina34_cracker 3.40 0067  02.08.2006

@<TRIPOS>MOLECULE
ASD01883450
  61   63    0    0    0
SMALL
NO_CHARGES


@<TRIPOS>ATOM
   1 N1            -0.0080     1.3271     0.0354 N.am    
   2 C2            -0.3623     0.6471    -1.0708 C.2     
   3 C3            -1.5938    -0.0487    -1.1070 C.2     
   4 C4            -2.4239    -0.0108     0.0261 C.2     
   5 C5            -1.9981     0.7175     1.1524 C.2     
   6 C6            -0.8092     1.3586     1.1319 C.2     
   7 O7             0.3768     0.6309    -2.0406 O.2     
   8 C8            -1.9868    -0.7769    -2.2757 C.1     
   9 N9            -2.2985    -1.3546    -3.2029 N.1     
  10 N10           -3.6309    -0.6732     0.0341 N.pl3   
  11 C11           -4.8919     0.0702     0.1608 C.3     
  12 C12           -5.6944    -0.5155     1.3268 C.3     
  13 C13           -5.8708    -2.0207     1.1144 C.3     
  14 C14           -4.4985    -2.6976     1.0843 C.3     
  15 C15           -3.6827    -2.1362    -0.0901 C.3     
  16 C16            1.2701     2.0427     0.0594 C.3     
  17 C17            1.0645     3.4711    -0.4488 C.3     
  18 C18            2.3993     4.2185    -0.4237 C.3     
  19 C19            3.3655     3.5704    -1.4174 C.3     
  20 C20            2.1725     5.6807    -0.8126 C.3     
  21 N21           -6.6684    -2.5800     2.2139 N.3     
  22 C22           -6.9591    -4.0014     1.9834 C.3     
  23 C23           -7.9732    -4.4767     2.9917 C.ar    
  24 C24           -9.3232    -4.3922     2.7061 C.ar    
  25 C25          -10.2540    -4.8282     3.6299 C.ar    
  26 C26           -9.8341    -5.3498     4.8418 C.ar    
  27 C27           -8.4817    -5.4340     5.1267 C.ar    
  28 C28           -7.5526    -5.0022     4.1992 C.ar    
  29 C29           -5.9962    -2.3829     3.5051 C.3     
  30 F30          -10.7432    -5.7759     5.7457 F       
  31 H31           -2.6200     0.7608     2.0343 H       
  32 H32           -0.4930     1.9144     2.0022 H       
  33 H33           -4.6785     1.1212     0.3555 H       
  34 H34           -5.4656    -0.0236    -0.7613 H       
  35 H35           -5.1602    -0.3399     2.2606 H       
  36 H36           -6.6729    -0.0373     1.3715 H       
  37 H37           -6.3831    -2.1964     0.1685 H       
  38 H38           -3.9756    -2.5016     2.0204 H       
  39 H39           -4.6258    -3.7726     0.9564 H       
  40 H40           -4.1593    -2.4118    -1.0309 H       
  41 H41           -2.6709    -2.5405    -0.0585 H       
  42 H42            1.6512     2.0716     1.0802 H       
  43 H43            1.9865     1.5287    -0.5814 H       
  44 H44            0.6835     3.4422    -1.4696 H       
  45 H45            0.3482     3.9852     0.1920 H       
  46 H46            2.8236     4.1709     0.5793 H       
  47 H47            3.5271     2.5287    -1.1403 H       
  48 H48            2.9412     3.6181    -2.4203 H       
  49 H49            4.3164     4.1029    -1.3995 H       
  50 H50            1.4842     6.1424    -0.1046 H       
  51 H51            3.1235     6.2132    -0.7946 H       
  52 H52            1.7483     5.7284    -1.8155 H       
  53 H53           -7.3581    -4.1321     0.9775 H       
  54 H54           -6.0424    -4.5815     2.0888 H       
  55 H55           -9.6505    -3.9850     1.7609 H       
  56 H56          -11.3086    -4.7617     3.4067 H       
  57 H57           -8.1530    -5.8406     6.0716 H       
  58 H58           -6.4977    -5.0677     4.4212 H       
  59 H59           -5.8556    -1.3167     3.6825 H       
  60 H60           -6.6081    -2.8062     4.3017 H       
  61 H61           -5.0261    -2.8796     3.4893 H       
@<TRIPOS>BOND
   1    1    2 am
   2    1   16 1
   3    1    6 1
   4    2    3 1
   5    2    7 2
   6    3    4 2
   7    3    8 1
   8    4    5 1
   9    4   10 1
  10    5    6 2
  11    5   31 1
  12    6   32 1
  13    8    9 3
  14   10   11 1
  15   10   15 1
  16   11   12 1
  17   11   33 1
  18   11   34 1
  19   12   13 1
  20   12   35 1
  21   12   36 1
  22   13   14 1
  23   13   21 1
  24   13   37 1
  25   14   15 1
  26   14   38 1
  27   14   39 1
  28   15   40 1
  29   15   41 1
  30   16   17 1
  31   16   42 1
  32   16   43 1
  33   17   18 1
  34   17   44 1
  35   17   45 1
  36   18   19 1
  37   18   20 1
  38   18   46 1
  39   19   47 1
  40   19   48 1
  41   19   49 1
  42   20   50 1
  43   20   51 1
  44   20   52 1
  45   21   22 1
  46   21   29 1
  47   22   23 1
  48   22   53 1
  49   22   54 1
  50   23   24 ar
  51   23   28 ar
  52   24   25 ar
  53   24   55 1
  54   25   26 ar
  55   25   56 1
  56   26   27 ar
  57   26   30 1
  58   27   28 ar
  59   27   57 1
  60   28   58 1
  61   29   59 1
  62   29   60 1
  63   29   61 1

#	End of record

