#	Name: ASD07300920
#	Creating user name:	WinNT
#	Creation time:	15. 06. 2019 21:10

#	Modifying user name:	WinNT
#	Modification time:	15. 06. 2019 21:10

#	Program:	/corina/corina34_cracker 3.40 0067  02.08.2006

@<TRIPOS>MOLECULE
ASD07300920
  54   58    0    0    0
SMALL
NO_CHARGES


@<TRIPOS>ATOM
   1 N1             0.1074     1.3683    -0.0077 N.am    
   2 C2             0.0574     0.0154    -0.0992 C.2     
   3 N3             1.1184    -0.7271    -0.2214 N.2     
   4 C4             2.3517    -0.1992    -0.2664 C.2     
   5 C5             2.5036     1.1937    -0.1793 C.2     
   6 C6             1.2982     2.0111    -0.0419 C.2     
   7 N7             3.6010    -0.7188    -0.3855 N.pl3   
   8 N8             4.5202     0.3379    -0.3728 N.2     
   9 C9             3.8818     1.4690    -0.2516 C.2     
  10 O10            1.3636     3.2250     0.0380 O.2     
  11 C11            3.9306    -2.1411    -0.5061 C.3     
  12 C12            4.5440    -2.4076    -1.8822 C.3     
  13 C13            4.8882    -3.8931    -2.0082 C.3     
  14 C14            5.8917    -4.2781    -0.9193 C.3     
  15 C15            5.2784    -4.0117     0.4568 C.3     
  16 C16            4.9341    -2.5262     0.5828 C.3     
  17 C17           -1.2900    -0.6583    -0.0568 C.3     
  18 C18           -1.3118    -2.0357    -0.7403 C.3     
  19 C19           -2.2098    -2.5076     0.4155 C.3     
  20 C20           -1.5684    -1.3964     1.2633 C.3     
  21 C21           -0.3200    -1.8328     1.9858 C.2     
  22 C22            0.3171    -2.9690     1.7015 C.2     
  23 S23            1.7137    -3.0948     2.7678 S.3     
  24 C24            1.3056    -1.6028     3.4960 C.2     
  25 N25            0.2348    -1.1177     2.9483 N.2     
  26 N26            2.0185    -0.9972     4.5189 N.pl3   
  27 C27            1.5129     0.2313     5.1364 C.3     
  28 C28            3.2774    -1.5857     4.9824 C.3     
  29 F29            6.2065    -5.6364    -1.0345 F       
  30 F30            7.0553    -3.5157    -1.0668 F       
  31 H31           -0.7139     1.8772     0.0785 H       
  32 H32            4.3336     2.4492    -0.2132 H       
  33 H33            3.0240    -2.7352    -0.3912 H       
  34 H34            3.8291    -2.1333    -2.6579 H       
  35 H35            5.4506    -1.8135    -1.9971 H       
  36 H36            3.9816    -4.4871    -1.8933 H       
  37 H37            5.3252    -4.0829    -2.9885 H       
  38 H38            4.3717    -4.6057     0.5717 H       
  39 H39            5.9933    -4.2860     1.2325 H       
  40 H40            5.8408    -1.9322     0.4679 H       
  41 H41            4.4972    -2.3364     1.5631 H       
  42 H42           -2.1015    -0.0019    -0.3711 H       
  43 H43           -1.8116    -2.0345    -1.7090 H       
  44 H44           -0.3387    -2.5261    -0.7655 H       
  45 H45           -3.2736    -2.3573     0.2313 H       
  46 H46           -1.9778    -3.5132     0.7660 H       
  47 H47           -2.2752    -0.8792     1.9121 H       
  48 H48            0.0272    -3.6872     0.9488 H       
  49 H49            0.5302     0.4659     4.7273 H       
  50 H50            1.4334     0.0900     6.2143 H       
  51 H51            2.1989     1.0521     4.9272 H       
  52 H52            4.0947    -1.2404     4.3493 H       
  53 H53            3.4628    -1.2820     6.0127 H       
  54 H54            3.2115    -2.6724     4.9302 H       
@<TRIPOS>BOND
   1    1    2 1
   2    1    6 am
   3    1   31 1
   4    2    3 2
   5    2   17 1
   6    3    4 1
   7    4    5 2
   8    4    7 1
   9    5    6 1
  10    5    9 1
  11    6   10 2
  12    7    8 1
  13    7   11 1
  14    8    9 2
  15    9   32 1
  16   11   12 1
  17   11   16 1
  18   11   33 1
  19   12   13 1
  20   12   34 1
  21   12   35 1
  22   13   14 1
  23   13   36 1
  24   13   37 1
  25   14   15 1
  26   14   29 1
  27   14   30 1
  28   15   16 1
  29   15   38 1
  30   15   39 1
  31   16   40 1
  32   16   41 1
  33   17   18 1
  34   17   20 1
  35   17   42 1
  36   18   19 1
  37   18   43 1
  38   18   44 1
  39   19   20 1
  40   19   45 1
  41   19   46 1
  42   20   21 1
  43   20   47 1
  44   21   22 2
  45   21   25 1
  46   22   23 1
  47   22   48 1
  48   23   24 1
  49   24   25 2
  50   24   26 1
  51   26   27 1
  52   26   28 1
  53   27   49 1
  54   27   50 1
  55   27   51 1
  56   28   52 1
  57   28   53 1
  58   28   54 1

#	End of record

