#	Name: ASD02120002
#	Creating user name:	WinNT
#	Creation time:	15. 06. 2019 20:18

#	Modifying user name:	WinNT
#	Modification time:	15. 06. 2019 20:18

#	Program:	/corina/corina34_cracker 3.40 0067  02.08.2006

@<TRIPOS>MOLECULE
ASD02120002
  64   66    0    0    0
SMALL
NO_CHARGES


@<TRIPOS>ATOM
   1 C1            -0.0173     1.4248     0.0099 C.3     
   2 O2             0.0021    -0.0041     0.0020 O.3     
   3 C3            -1.2953    -0.6030     0.0112 C.3     
   4 C4            -1.1538    -2.1264     0.0017 C.3     
   5 N5            -0.5155    -2.5654     1.2451 N.am    
   6 C6            -0.2873    -3.8763     1.4591 C.2     
   7 O7            -0.6102    -4.6926     0.6223 O.2     
   8 C8             0.3694    -4.3278     2.7382 C.3     
   9 N9             0.5048    -5.7865     2.7290 N.am    
  10 C10            0.5783    -6.4638     3.8920 C.2     
  11 O11            0.5321    -5.8635     4.9497 O.2     
  12 C12            0.7138    -7.9233     3.8828 C.2     
  13 C13            0.7977    -8.7186     4.9909 C.2     
  14 C14            0.9193   -10.0551     4.6929 C.2     
  15 C15            0.9345   -10.3465     3.3869 C.2     
  16 S16            0.7869    -8.9319     2.4444 S.3     
  17 C17            1.0595   -11.7387     2.8239 C.3     
  18 N18           -0.2751   -12.3185     2.6541 N.pl3   
  19 C19           -0.4153   -13.6109     2.1433 C.ar    
  20 C20           -1.6800   -14.1619     1.9817 C.ar    
  21 C21           -1.8159   -15.4401     1.4760 C.ar    
  22 C22           -0.6948   -16.1717     1.1309 C.ar    
  23 C23            0.5674   -15.6263     1.2909 C.ar    
  24 C24            0.7096   -14.3456     1.7906 C.ar    
  25 Cl25           1.9724   -16.5489     0.8568 Cl      
  26 C26            1.7542    -3.6877     2.8541 C.3     
  27 C27            2.3697    -4.0456     4.2084 C.3     
  28 C28            3.8017    -3.5111     4.2749 C.3     
  29 C29            4.4172    -3.8690     5.6292 C.3     
  30 C30            3.5857    -3.2405     6.7493 C.3     
  31 C31            2.1537    -3.7749     6.6827 C.3     
  32 C32            1.5382    -3.4171     5.3285 C.3     
  33 H33            1.0053     1.8021     0.0021 H       
  34 H34           -0.5445     1.7859    -0.8732 H       
  35 H35           -0.5275     1.7763     0.9067 H       
  36 H36           -1.8320    -0.2936     0.9080 H       
  37 H37           -1.8490    -0.2840    -0.8718 H       
  38 H38           -2.1404    -2.5824    -0.0809 H       
  39 H39           -0.5414    -2.4291    -0.8477 H       
  40 H40           -0.2572    -1.9125     1.9144 H       
  41 H41           -0.2431    -4.0251     3.5875 H       
  42 H42            0.5416    -6.2649     1.8860 H       
  43 H43            0.7716    -8.3352     6.0002 H       
  44 H44            0.9971   -10.8144     5.4570 H       
  45 H45            1.5628   -11.6962     1.8580 H       
  46 H46            1.6397   -12.3569     3.5090 H       
  47 H47           -1.0614   -11.8048     2.8963 H       
  48 H48           -2.5565   -13.5916     2.2516 H       
  49 H49           -2.7992   -15.8687     1.3503 H       
  50 H50           -0.8039   -17.1710     0.7361 H       
  51 H51            1.6943   -13.9200     1.9151 H       
  52 H52            2.3945    -4.0598     2.0543 H       
  53 H53            1.6619    -2.6048     2.7717 H       
  54 H54            2.3802    -5.1290     4.3278 H       
  55 H55            4.3941    -3.9589     3.4770 H       
  56 H56            3.7912    -2.4278     4.1555 H       
  57 H57            4.4278    -4.9524     5.7486 H       
  58 H58            5.4374    -3.4882     5.6766 H       
  59 H59            4.0242    -3.4954     7.7141 H       
  60 H60            3.5752    -2.1571     6.6299 H       
  61 H61            2.1642    -4.8583     6.8022 H       
  62 H62            1.5613    -3.3272     7.4807 H       
  63 H63            1.5276    -2.3337     5.2091 H       
  64 H64            0.5180    -3.7978     5.2811 H       
@<TRIPOS>BOND
   1    1    2 1
   2    1   33 1
   3    1   34 1
   4    1   35 1
   5    2    3 1
   6    3    4 1
   7    3   36 1
   8    3   37 1
   9    4    5 1
  10    4   38 1
  11    4   39 1
  12    5    6 am
  13    5   40 1
  14    6    7 2
  15    6    8 1
  16    8    9 1
  17    8   26 1
  18    8   41 1
  19    9   10 am
  20    9   42 1
  21   10   11 2
  22   10   12 1
  23   12   13 2
  24   12   16 1
  25   13   14 1
  26   13   43 1
  27   14   15 2
  28   14   44 1
  29   15   16 1
  30   15   17 1
  31   17   18 1
  32   17   45 1
  33   17   46 1
  34   18   19 1
  35   18   47 1
  36   19   20 ar
  37   19   24 ar
  38   20   21 ar
  39   20   48 1
  40   21   22 ar
  41   21   49 1
  42   22   23 ar
  43   22   50 1
  44   23   24 ar
  45   23   25 1
  46   24   51 1
  47   26   27 1
  48   26   52 1
  49   26   53 1
  50   27   28 1
  51   27   32 1
  52   27   54 1
  53   28   29 1
  54   28   55 1
  55   28   56 1
  56   29   30 1
  57   29   57 1
  58   29   58 1
  59   30   31 1
  60   30   59 1
  61   30   60 1
  62   31   32 1
  63   31   61 1
  64   31   62 1
  65   32   63 1
  66   32   64 1

#	End of record

