#	Name: ASD03090293
#	Creating user name:	WinNT
#	Creation time:	15. 06. 2019 20:28

#	Modifying user name:	WinNT
#	Modification time:	15. 06. 2019 20:28

#	Program:	/corina/corina34_cracker 3.40 0067  02.08.2006

@<TRIPOS>MOLECULE
ASD03090293
  46   48    0    0    0
SMALL
NO_CHARGES


@<TRIPOS>ATOM
   1 N1             0.4119     1.4850     1.4648 N.ar    
   2 C2             0.3835     0.1662     1.4401 C.ar    
   3 C3             1.5149    -0.5611     1.1332 C.ar    
   4 C4             2.7025     0.1207     0.8459 C.ar    
   5 C5             2.6867     1.5189     0.8837 C.ar    
   6 C6             1.5099     2.1664     1.2004 C.ar    
   7 C7             3.9413    -0.6172     0.5117 C.2     
   8 N8             5.7381    -3.4562    -0.5207 N.pl3   
   9 C9             4.8185    -4.4490    -0.8690 C.ar    
  10 C10            5.1176    -5.7861    -0.6384 C.ar    
  11 C11            4.2080    -6.7674    -0.9824 C.ar    
  12 C12            2.9995    -6.4223    -1.5567 C.ar    
  13 C13            2.6953    -5.0881    -1.7899 C.ar    
  14 C14            3.6022    -4.1003    -1.4407 C.ar    
  15 N15            4.0133    -1.8724     0.1168 N.2     
  16 C16            5.2871    -2.2050    -0.0954 C.2     
  17 N17            6.0494    -1.1665     0.1609 N.2     
  18 N18            5.1978    -0.1206     0.5521 N.pl3   
  19 C19            5.5935     1.2366     0.9363 C.3     
  20 C20            5.6898     2.1130    -0.3141 C.3     
  21 C21            5.9805     3.5578     0.0969 C.3     
  22 C22           -0.9022    -0.5555     1.7520 C.3     
  23 O23            1.5065    -4.7506    -2.3552 O.3     
  24 O24            6.7445     1.6344    -1.1512 O.3     
  25 C25            0.6176    -5.8201    -2.6840 C.3     
  26 F26            0.2937    -6.5308    -1.5234 F       
  27 F27           -0.5494    -5.2984    -3.2525 F       
  28 F28            1.2384    -6.6780    -3.5982 F       
  29 H29            1.4844    -1.6405     1.1152 H       
  30 H30            3.5821     2.0832     0.6687 H       
  31 H31            1.4876     3.2457     1.2322 H       
  32 H32            6.6897    -3.6362    -0.5744 H       
  33 H33            6.0618    -6.0584    -0.1903 H       
  34 H34            4.4421    -7.8062    -0.8025 H       
  35 H35            2.2907    -7.1918    -1.8248 H       
  36 H36            3.3673    -3.0617    -1.6214 H       
  37 H37            4.8498     1.6532     1.6156 H       
  38 H38            6.5629     1.2054     1.4336 H       
  39 H39            4.7467     2.0731    -0.8593 H       
  40 H40            6.9236     3.5977     0.6421 H       
  41 H41            6.0492     4.1822    -0.7939 H       
  42 H42            5.1761     3.9228     0.7354 H       
  43 H43           -1.4671    -0.7054     0.8320 H       
  44 H44           -0.6762    -1.5225     2.2013 H       
  45 H45           -1.4931     0.0395     2.4484 H       
  46 H46            7.6149     1.6416    -0.7300 H       
@<TRIPOS>BOND
   1    1    2 ar
   2    1    6 ar
   3    2    3 ar
   4    2   22 1
   5    3    4 ar
   6    3   29 1
   7    4    5 ar
   8    4    7 1
   9    5    6 ar
  10    5   30 1
  11    6   31 1
  12    7   15 2
  13    7   18 1
  14    8    9 1
  15    8   16 1
  16    8   32 1
  17    9   10 ar
  18    9   14 ar
  19   10   11 ar
  20   10   33 1
  21   11   12 ar
  22   11   34 1
  23   12   13 ar
  24   12   35 1
  25   13   14 ar
  26   13   23 1
  27   14   36 1
  28   15   16 1
  29   16   17 2
  30   17   18 1
  31   18   19 1
  32   19   20 1
  33   19   37 1
  34   19   38 1
  35   20   21 1
  36   20   24 1
  37   20   39 1
  38   21   40 1
  39   21   41 1
  40   21   42 1
  41   22   43 1
  42   22   44 1
  43   22   45 1
  44   23   25 1
  45   24   46 1
  46   25   26 1
  47   25   27 1
  48   25   28 1

#	End of record

