#	Name: ASD02190021
#	Creating user name:	WinNT
#	Creation time:	15. 06. 2019 20:18

#	Modifying user name:	WinNT
#	Modification time:	15. 06. 2019 20:18

#	Program:	/corina/corina34_cracker 3.40 0067  02.08.2006

@<TRIPOS>MOLECULE
ASD02190021
  44   46    0    0    0
SMALL
NO_CHARGES


@<TRIPOS>ATOM
   1 C1            -0.0167     1.3313    -0.0919 C.ar    
   2 N2             0.0046     0.0079    -0.1204 N.ar    
   3 C3            -1.1211    -0.6924    -0.0954 C.ar    
   4 N4            -2.3064    -0.1017    -0.0412 N.ar    
   5 C5            -2.4013     1.2231    -0.0101 C.ar    
   6 C6            -1.2321     1.9871    -0.0295 C.ar    
   7 N7            -3.6431     1.8384     0.0465 N.pl3   
   8 C8            -4.8030     1.0755    -0.0516 C.ar    
   9 C9            -5.9477     1.4596     0.6414 C.ar    
  10 C10           -7.0962     0.7078     0.5462 C.ar    
  11 C11           -7.1128    -0.4433    -0.2479 C.ar    
  12 C12           -5.9611    -0.8262    -0.9427 C.ar    
  13 C13           -4.8175    -0.0669    -0.8472 C.ar    
  14 C14           -1.0521    -2.1736    -0.1293 C.ar    
  15 C15            0.1838    -2.8152    -0.1868 C.ar    
  16 C16            0.2420    -4.1937    -0.2183 C.ar    
  17 C17           -0.9234    -4.9384    -0.1929 C.ar    
  18 C18           -2.1529    -4.3070    -0.1363 C.ar    
  19 C19           -2.2228    -2.9292    -0.0982 C.ar    
  20 C20            1.2705     2.1144    -0.1209 C.3     
  21 C21           -1.2715     3.9706     1.4581 C.3     
  22 C22           -1.2946     3.4924     0.0050 C.3     
  23 C23           -8.3412    -1.2514    -0.3518 C.2     
  24 O24           -9.3410    -0.9176     0.2528 O.2     
  25 O25           -8.3555    -2.3603    -1.1174 O.3     
  26 H26           -3.7032     2.8005     0.1545 H       
  27 H27           -5.9341     2.3484     1.2547 H       
  28 H28           -7.9838     1.0061     1.0843 H       
  29 H29           -5.9705    -1.7146    -1.5567 H       
  30 H30           -3.9278    -0.3621    -1.3835 H       
  31 H31            1.0943    -2.2346    -0.2071 H       
  32 H32            1.1991    -4.6919    -0.2632 H       
  33 H33           -0.8732    -6.0170    -0.2176 H       
  34 H34           -3.0596    -4.8935    -0.1170 H       
  35 H35           -3.1833    -2.4373    -0.0541 H       
  36 H36            1.5447     2.3247    -1.1547 H       
  37 H37            1.1373     3.0526     0.4177 H       
  38 H38            2.0607     1.5323     0.3533 H       
  39 H39           -1.3166     5.0594     1.4831 H       
  40 H40           -2.1294     3.5591     1.9898 H       
  41 H41           -0.3518     3.6341     1.9368 H       
  42 H42           -0.4366     3.9039    -0.5266 H       
  43 H43           -2.2142     3.8289    -0.4737 H       
  44 H44           -9.1840    -2.8576    -1.1544 H       
@<TRIPOS>BOND
   1    1    2 ar
   2    1   20 1
   3    1    6 ar
   4    2    3 ar
   5    3    4 ar
   6    3   14 1
   7    4    5 ar
   8    5    6 ar
   9    5    7 1
  10    6   22 1
  11    7    8 1
  12    7   26 1
  13    8    9 ar
  14    8   13 ar
  15    9   10 ar
  16    9   27 1
  17   10   11 ar
  18   10   28 1
  19   11   12 ar
  20   11   23 1
  21   12   13 ar
  22   12   29 1
  23   13   30 1
  24   14   15 ar
  25   14   19 ar
  26   15   16 ar
  27   15   31 1
  28   16   17 ar
  29   16   32 1
  30   17   18 ar
  31   17   33 1
  32   18   19 ar
  33   18   34 1
  34   19   35 1
  35   20   36 1
  36   20   37 1
  37   20   38 1
  38   21   22 1
  39   21   39 1
  40   21   40 1
  41   21   41 1
  42   22   42 1
  43   22   43 1
  44   23   24 2
  45   23   25 1
  46   25   44 1

#	End of record

