#	Name: ASD05170124
#	Creating user name:	WinNT
#	Creation time:	15. 06. 2019 20:57

#	Modifying user name:	WinNT
#	Modification time:	15. 06. 2019 20:57

#	Program:	/corina/corina34_cracker 3.40 0067  02.08.2006

@<TRIPOS>MOLECULE
ASD05170124
  42   45    0    0    0
SMALL
NO_CHARGES


@<TRIPOS>ATOM
   1 C1            -0.2245     1.4604    -1.1199 C.ar    
   2 C2            -0.2360     0.0852    -1.2732 C.ar    
   3 C3             0.9612    -0.6064    -1.1378 C.ar    
   4 C4             2.1180     0.0946    -0.8565 C.ar    
   5 N5             2.0961     1.4067    -0.7161 N.ar    
   6 C6             0.9762     2.0992    -0.8376 C.ar    
   7 O7             1.0002     3.4474    -0.6852 O.3     
   8 C8             2.2656     4.0451    -0.3960 C.3     
   9 C9             2.0975     5.5367    -0.2616 C.2     
  10 C10            0.8955     6.2456    -0.3901 C.2     
  11 N11            3.0502     6.4004     0.0020 N.2     
  12 C12            1.2326     7.5542    -0.1906 C.2     
  13 C13            0.4249     8.7833    -0.1908 C.2     
  14 N14            2.5867     7.5872     0.0604 N.pl3   
  15 C15            3.2738     8.8504     0.3550 C.3     
  16 C16            2.5569     9.9932    -0.3627 C.3     
  17 N17            1.1093     9.9527    -0.1710 N.am    
  18 O18           -0.7910     8.7519    -0.2083 O.2     
  19 C19            3.2544     9.1028     1.8639 C.3     
  20 Cl20           1.0032    -2.3323    -1.3196 Cl      
  21 C21            0.4141    11.1487     0.0425 C.ar    
  22 C22            0.3117    12.0933    -0.9694 C.ar    
  23 N23           -0.3421    13.2215    -0.7733 N.ar    
  24 C24           -0.9207    13.4980     0.3809 C.ar    
  25 C25           -0.8613    12.6041     1.4377 C.ar    
  26 C26           -0.1894    11.4050     1.2715 C.ar    
  27 F27           -1.5789    14.6679     0.5335 F       
  28 H28           -1.1363     2.0300    -1.2228 H       
  29 H29           -1.1547    -0.4386    -1.4926 H       
  30 H30            3.0516    -0.4377    -0.7498 H       
  31 H31            2.6551     3.6379     0.5370 H       
  32 H32            2.9627     3.8295    -1.2057 H       
  33 H33           -0.0847     5.8444    -0.6015 H       
  34 H34            4.3055     8.7931     0.0081 H       
  35 H35            2.9361    10.9415     0.0180 H       
  36 H36            2.7746     9.9313    -1.4290 H       
  37 H37            3.7624     8.2854     2.3756 H       
  38 H38            3.7647    10.0410     2.0820 H       
  39 H39            2.2222     9.1619     2.2092 H       
  40 H40            0.7725    11.9023    -1.9273 H       
  41 H41           -1.3373    12.8380     2.3785 H       
  42 H42           -0.1308    10.6876     2.0767 H       
@<TRIPOS>BOND
   1    1    2 ar
   2    1    6 ar
   3    1   28 1
   4    2    3 ar
   5    2   29 1
   6    3    4 ar
   7    3   20 1
   8    4    5 ar
   9    4   30 1
  10    5    6 ar
  11    6    7 1
  12    7    8 1
  13    8    9 1
  14    8   31 1
  15    8   32 1
  16    9   11 2
  17    9   10 1
  18   10   12 2
  19   10   33 1
  20   11   14 1
  21   12   14 1
  22   12   13 1
  23   13   17 am
  24   13   18 2
  25   14   15 1
  26   15   16 1
  27   15   19 1
  28   15   34 1
  29   16   17 1
  30   16   35 1
  31   16   36 1
  32   17   21 1
  33   19   37 1
  34   19   38 1
  35   19   39 1
  36   21   22 ar
  37   21   26 ar
  38   22   23 ar
  39   22   40 1
  40   23   24 ar
  41   24   25 ar
  42   24   27 1
  43   25   26 ar
  44   25   41 1
  45   26   42 1

#	End of record

