#	Name: ASD06020027
#	Creating user name:	WinNT
#	Creation time:	15. 06. 2019 21:04

#	Modifying user name:	WinNT
#	Modification time:	15. 06. 2019 21:04

#	Program:	/corina/corina34_cracker 3.40 0067  02.08.2006

@<TRIPOS>MOLECULE
ASD06020027
  38   41    0    0    0
SMALL
NO_CHARGES


@<TRIPOS>ATOM
   1 C1            -2.5315    -2.7342    -0.0003 C.2     
   2 C2            -1.2180    -2.0487     0.0046 C.ar    
   3 C3            -1.1369    -0.6516     0.0325 C.ar    
   4 C4             0.1052    -0.0498     0.0362 C.ar    
   5 N5             1.2091    -0.7707     0.0140 N.ar    
   6 C6             1.1813    -2.0937    -0.0128 C.ar    
   7 C7            -0.0289    -2.7788    -0.0126 C.ar    
   8 O8            -2.5832    -3.9480    -0.0247 O.2     
   9 N9            -3.6688    -2.0116     0.0278 N.am    
  10 N10            2.3758    -2.8070    -0.0356 N.pl3   
  11 C11            3.5874    -2.1317    -0.1485 C.ar    
  12 C12            4.7900    -2.8404    -0.0582 C.ar    
  13 C13            6.0051    -2.1554    -0.1727 C.ar    
  14 C14            5.9384    -0.7536    -0.3774 C.ar    
  15 C15            4.7260    -0.1440    -0.4528 C.ar    
  16 N16            3.5956    -0.8247    -0.3460 N.ar    
  17 S17            5.1378    -4.5482     0.1875 S.3     
  18 C18            6.8639    -4.2164     0.1187 C.2     
  19 N19            7.0687    -2.9532    -0.0684 N.2     
  20 C20            7.9269    -5.2344     0.2557 C.ar    
  21 C21            9.2704    -4.8597     0.1850 C.ar    
  22 C22           10.2582    -5.8163     0.3138 C.ar    
  23 C23            9.9195    -7.1427     0.5122 C.ar    
  24 C24            8.5909    -7.5211     0.5832 C.ar    
  25 C25            7.5925    -6.5746     0.4619 C.ar    
  26 Cl26           5.9258    -7.0506     0.5591 Cl      
  27 Cl27           9.6978    -3.1958    -0.0645 Cl      
  28 H28           -2.0350    -0.0520     0.0506 H       
  29 H29            0.1740     1.0278     0.0574 H       
  30 H30           -0.0482    -3.8585    -0.0294 H       
  31 H31           -3.6275    -1.0428     0.0513 H       
  32 H32           -4.5288    -2.4604     0.0246 H       
  33 H33            2.3641    -3.7749     0.0273 H       
  34 H34            6.8450    -0.1743    -0.4724 H       
  35 H35            4.6836     0.9239    -0.6089 H       
  36 H36           11.2976    -5.5281     0.2590 H       
  37 H37           10.6961    -7.8865     0.6118 H       
  38 H38            8.3337    -8.5585     0.7383 H       
@<TRIPOS>BOND
   1    1    2 1
   2    1    8 2
   3    1    9 am
   4    2    3 ar
   5    2    7 ar
   6    3    4 ar
   7    3   28 1
   8    4    5 ar
   9    4   29 1
  10    5    6 ar
  11    6    7 ar
  12    6   10 1
  13    7   30 1
  14    9   31 1
  15    9   32 1
  16   10   11 1
  17   10   33 1
  18   11   12 ar
  19   11   16 ar
  20   12   13 ar
  21   12   17 1
  22   13   14 ar
  23   13   19 1
  24   14   15 ar
  25   14   34 1
  26   15   16 ar
  27   15   35 1
  28   17   18 1
  29   18   19 2
  30   18   20 1
  31   20   21 ar
  32   20   25 ar
  33   21   22 ar
  34   21   27 1
  35   22   23 ar
  36   22   36 1
  37   23   24 ar
  38   23   37 1
  39   24   25 ar
  40   24   38 1
  41   25   26 1

#	End of record

