#	Name: ASD02562073
#	Creating user name:	WinNT
#	Creation time:	15. 06. 2019 20:25

#	Modifying user name:	WinNT
#	Modification time:	15. 06. 2019 20:25

#	Program:	/corina/corina34_cracker 3.40 0067  02.08.2006

@<TRIPOS>MOLECULE
ASD02562073
  43   46    0    0    0
SMALL
NO_CHARGES


@<TRIPOS>ATOM
   1 C1             0.0974     0.9528     1.1023 C.2     
   2 C2             0.2536    -0.4456     1.1172 C.2     
   3 C3             1.4425    -1.0014     0.8057 C.2     
   4 N4             2.5129    -0.2150     0.4705 N.pl3   
   5 C5             2.3891     1.1552     0.4472 C.2     
   6 C6             1.1499     1.7468     0.7719 C.2     
   7 C7             3.8002    -0.5135     0.1198 C.2     
   8 C8             4.4394     0.6865    -0.1116 C.2     
   9 N9             3.5531     1.6774     0.0965 N.2     
  10 N10            4.3601    -1.7874     0.0167 N.3     
  11 C11            5.8544     0.8552    -0.5174 C.ar    
  12 C12            3.3323    -2.8273     0.1594 C.3     
  13 C13            3.8094    -4.1125    -0.5198 C.3     
  14 C14            2.7390    -5.1955    -0.3712 C.3     
  15 C15            2.4898    -5.4659     1.1140 C.3     
  16 C16            2.0127    -4.1806     1.7933 C.3     
  17 C17            3.0831    -3.0976     1.6446 C.3     
  18 C18            6.8613     0.1568     0.1476 C.ar    
  19 C19            8.1776     0.3180    -0.2349 C.ar    
  20 C20            8.4995     1.1703    -1.2757 C.ar    
  21 C21            7.5054     1.8666    -1.9401 C.ar    
  22 C22            6.1843     1.7096    -1.5708 C.ar    
  23 Cl23           4.9378     2.5832    -2.4055 Cl      
  24 Cl24          -1.0902    -1.4604     1.5391 Cl      
  25 H25           -0.8573     1.3937     1.3484 H       
  26 H26            1.5516    -2.0757     0.8209 H       
  27 H27            1.0386     2.8210     0.7577 H       
  28 H28            4.8625    -1.8924    -0.8520 H       
  29 H29            2.4074    -2.4906    -0.3088 H       
  30 H30            3.9869    -3.9199    -1.5779 H       
  31 H31            4.7344    -4.4492    -0.0516 H       
  32 H32            1.8140    -4.8589    -0.8394 H       
  33 H33            3.0788    -6.1112    -0.8551 H       
  34 H34            1.7272    -6.2374     1.2199 H       
  35 H35            3.4147    -5.8025     1.5822 H       
  36 H36            1.0877    -3.8440     1.3250 H       
  37 H37            1.8352    -4.3732     2.8513 H       
  38 H38            4.0081    -3.4342     2.1128 H       
  39 H39            2.7433    -2.1819     2.1285 H       
  40 H40            6.6118    -0.5087     0.9607 H       
  41 H41            8.9582    -0.2223     0.2800 H       
  42 H42            9.5311     1.2931    -1.5707 H       
  43 H43            7.7629     2.5306    -2.7520 H       
@<TRIPOS>BOND
   1    1    2 1
   2    1    6 2
   3    1   25 1
   4    2    3 2
   5    2   24 1
   6    3    4 1
   7    3   26 1
   8    4    5 1
   9    4    7 1
  10    5    6 1
  11    5    9 2
  12    6   27 1
  13    7    8 2
  14    7   10 1
  15    8    9 1
  16    8   11 1
  17   10   12 1
  18   10   28 1
  19   11   18 ar
  20   11   22 ar
  21   12   13 1
  22   12   17 1
  23   12   29 1
  24   13   14 1
  25   13   30 1
  26   13   31 1
  27   14   15 1
  28   14   32 1
  29   14   33 1
  30   15   16 1
  31   15   34 1
  32   15   35 1
  33   16   17 1
  34   16   36 1
  35   16   37 1
  36   17   38 1
  37   17   39 1
  38   18   19 ar
  39   18   40 1
  40   19   20 ar
  41   19   41 1
  42   20   21 ar
  43   20   42 1
  44   21   22 ar
  45   21   43 1
  46   22   23 1

#	End of record

