#	Name: ASD03110019
#	Creating user name:	WinNT
#	Creation time:	15. 06. 2019 20:33

#	Modifying user name:	WinNT
#	Modification time:	15. 06. 2019 20:33

#	Program:	/corina/corina34_cracker 3.40 0067  02.08.2006

@<TRIPOS>MOLECULE
ASD03110019
  49   52    0    0    0
SMALL
NO_CHARGES


@<TRIPOS>ATOM
   1 C1            -0.0167     1.3837     0.0096 C.ar    
   2 C2             0.0021    -0.0041     0.0020 C.ar    
   3 C3             1.2033    -0.6765    -0.0131 C.ar    
   4 C4             2.4013     0.0355    -0.0208 C.ar    
   5 C5             2.3914     1.4362    -0.0132 C.ar    
   6 C6             1.1424     2.0967     0.0024 C.ar    
   7 S7             4.0773    -0.5072    -0.0407 S.3     
   8 C8             4.6286     1.1626    -0.0374 C.2     
   9 N9             3.6194     1.9666    -0.0228 N.2     
  10 C10            6.0454     1.5848    -0.0488 C.ar    
  11 C11            6.3691     2.9434    -0.0449 C.ar    
  12 C12            7.0599     0.6249    -0.0577 C.ar    
  13 C13            8.3791     1.0177    -0.0683 C.ar    
  14 C14            8.7033     2.3768    -0.0702 C.ar    
  15 C15            7.6882     3.3368    -0.0555 C.ar    
  16 C16           10.1189     2.7986    -0.0815 C.2     
  17 O17           11.0023     1.9630    -0.0892 O.2     
  18 N18           10.4314     4.1097    -0.0833 N.am    
  19 N19           11.7740     4.5098    -0.0941 N.2     
  20 C20           12.0750     5.7723    -0.0958 C.2     
  21 C21           13.4883     6.1934    -0.1072 C.ar    
  22 C22           13.8146     7.5511    -0.1090 C.ar    
  23 C23           14.5045     5.2357    -0.1102 C.ar    
  24 C24           15.8301     5.6360    -0.1204 C.ar    
  25 C25           16.1494     6.9864    -0.1276 C.ar    
  26 C26           15.1431     7.9417    -0.1192 C.ar    
  27 O27           16.8200     4.7049    -0.1229 O.3     
  28 C28           18.1649     5.1878    -0.1336 C.3     
  29 O29           15.4618     9.2629    -0.1267 O.3     
  30 C30           16.8516     9.5949    -0.1432 C.3     
  31 H31           -0.9630     1.9042     0.0169 H       
  32 H32           -0.9259    -0.5566     0.0083 H       
  33 H33            1.2173    -1.7564    -0.0187 H       
  34 H34            1.1074     3.1761     0.0085 H       
  35 H35            5.5844     3.6854    -0.0339 H       
  36 H36            6.8093    -0.4256    -0.0559 H       
  37 H37            9.1636     0.2754    -0.0748 H       
  38 H38            7.9384     4.3874    -0.0569 H       
  39 H39            9.7268     4.7762    -0.0771 H       
  40 H40           11.2904     6.5144    -0.0890 H       
  41 H41           13.0320     8.2954    -0.1029 H       
  42 H42           14.2570     4.1845    -0.1043 H       
  43 H43           17.1844     7.2948    -0.1355 H       
  44 H44           18.3390     5.7978     0.7528 H       
  45 H45           18.8542     4.3433    -0.1345 H       
  46 H46           18.3275     5.7905    -1.0271 H       
  47 H47           17.3144     9.1768    -1.0371 H       
  48 H48           16.9662    10.6788    -0.1477 H       
  49 H49           17.3342     9.1822     0.7427 H       
@<TRIPOS>BOND
   1    1    2 ar
   2    1    6 ar
   3    1   31 1
   4    2    3 ar
   5    2   32 1
   6    3    4 ar
   7    3   33 1
   8    4    5 ar
   9    4    7 1
  10    5    6 ar
  11    5    9 1
  12    6   34 1
  13    7    8 1
  14    8    9 2
  15    8   10 1
  16   10   11 ar
  17   10   12 ar
  18   11   15 ar
  19   11   35 1
  20   12   13 ar
  21   12   36 1
  22   13   14 ar
  23   13   37 1
  24   14   15 ar
  25   14   16 1
  26   15   38 1
  27   16   17 2
  28   16   18 am
  29   18   19 1
  30   18   39 1
  31   19   20 2
  32   20   21 1
  33   20   40 1
  34   21   22 ar
  35   21   23 ar
  36   22   26 ar
  37   22   41 1
  38   23   24 ar
  39   23   42 1
  40   24   25 ar
  41   24   27 1
  42   25   26 ar
  43   25   43 1
  44   26   29 1
  45   27   28 1
  46   28   44 1
  47   28   45 1
  48   28   46 1
  49   29   30 1
  50   30   47 1
  51   30   48 1
  52   30   49 1

#	End of record

