#	Name: ASD01911279
#	Creating user name:	WinNT
#	Creation time:	15. 06. 2019 19:57

#	Modifying user name:	WinNT
#	Modification time:	15. 06. 2019 19:57

#	Program:	/corina/corina34_cracker 3.40 0067  02.08.2006

@<TRIPOS>MOLECULE
ASD01911279
  41   44    0    0    0
SMALL
NO_CHARGES


@<TRIPOS>ATOM
   1 C1            -0.2152     1.4926    -0.4223 C.3     
   2 C2            -0.1293    -0.0440    -0.3073 C.3     
   3 N3             1.2367    -0.4344    -0.6858 N.am    
   4 C4             1.9904     0.7783    -1.0528 C.3     
   5 C5             1.2687     1.9326    -0.3136 C.3     
   6 C6             1.7200    -1.6925    -0.6949 C.2     
   7 O7             2.8411    -1.9100    -1.1123 O.2     
   8 C8             0.8886    -2.8060    -0.1983 C.ar    
   9 C9             3.4192     0.6691    -0.5864 C.2     
  10 N10            4.4889     0.9731    -1.2784 N.2     
  11 C11            5.5351     0.7173    -0.4609 C.2     
  12 N12            5.0441     0.2772     0.6683 N.2     
  13 O13            3.8328     0.2491     0.6133 O.3     
  14 C14            6.9719     0.9010    -0.7849 C.ar    
  15 C15            7.9465     0.5941     0.1620 C.ar    
  16 C16            9.2818     0.7665    -0.1432 C.ar    
  17 C17            9.6540     1.2430    -1.3866 C.ar    
  18 C18            8.6897     1.5506    -2.3328 C.ar    
  19 C19            7.3503     1.3756    -2.0388 C.ar    
  20 F20            9.0590     2.0167    -3.5458 F       
  21 C21           -0.4400    -2.9281    -0.6123 C.ar    
  22 C22           -1.2119    -3.9696    -0.1455 C.ar    
  23 C23           -0.6735    -4.8972     0.7342 C.ar    
  24 C24            0.6430    -4.7834     1.1502 C.ar    
  25 C25            1.4294    -3.7472     0.6847 C.ar    
  26 F26           -1.4364    -5.9158     1.1876 F       
  27 F27            2.7133    -3.6361     1.0904 F       
  28 H28           -0.6345     1.7844    -1.3852 H       
  29 H29           -0.8018     1.9084     0.3969 H       
  30 H30           -0.3316    -0.3508     0.7189 H       
  31 H31           -0.8480    -0.5071    -0.9834 H       
  32 H32            1.9533     0.9363    -2.1307 H       
  33 H33            1.4322     2.8837    -0.8204 H       
  34 H34            1.5847     1.9874     0.7281 H       
  35 H35            7.6578     0.2221     1.1339 H       
  36 H36           10.0373     0.5289     0.5911 H       
  37 H37           10.6998     1.3763    -1.6209 H       
  38 H38            6.5986     1.6153    -2.7763 H       
  39 H39           -0.8617    -2.2071    -1.2969 H       
  40 H40           -2.2391    -4.0639    -0.4653 H       
  41 H41            1.0566    -5.5084     1.8356 H       
@<TRIPOS>BOND
   1    1    2 1
   2    1    5 1
   3    1   28 1
   4    1   29 1
   5    2    3 1
   6    2   30 1
   7    2   31 1
   8    3    4 1
   9    3    6 am
  10    4    5 1
  11    4    9 1
  12    4   32 1
  13    5   33 1
  14    5   34 1
  15    6    7 2
  16    6    8 1
  17    8   21 ar
  18    8   25 ar
  19    9   10 2
  20    9   13 1
  21   10   11 1
  22   11   12 2
  23   11   14 1
  24   12   13 1
  25   14   15 ar
  26   14   19 ar
  27   15   16 ar
  28   15   35 1
  29   16   17 ar
  30   16   36 1
  31   17   18 ar
  32   17   37 1
  33   18   19 ar
  34   18   20 1
  35   19   38 1
  36   21   22 ar
  37   21   39 1
  38   22   23 ar
  39   22   40 1
  40   23   24 ar
  41   23   26 1
  42   24   25 ar
  43   24   41 1
  44   25   27 1

#	End of record

