#	Name: ASD06300003
#	Creating user name:	WinNT
#	Creation time:	15. 06. 2019 21:05

#	Modifying user name:	WinNT
#	Modification time:	15. 06. 2019 21:05

#	Program:	/corina/corina34_cracker 3.40 0067  02.08.2006

@<TRIPOS>MOLECULE
ASD06300003
 194  196    0    0    0
SMALL
NO_CHARGES


@<TRIPOS>ATOM
   1 N1            -4.0567     5.5968     5.9941 N.am    
   2 C2            -3.1407    -9.0720    12.3607 C.3     
   3 C3            -2.7453    -9.7369    11.0406 C.3     
   4 C4            -1.9948    -8.7487    10.1855 C.2     
   5 N5            -1.8902   -10.8946    11.3139 N.am    
   6 O6            -0.8576    -8.9880     9.8385 O.2     
   7 C7            -1.8991    -8.6373    13.0959 C.2     
   8 N8            -2.0051    -7.9207    14.2324 N.am    
   9 O9            -0.8046    -8.9323    12.6648 O.2     
  10 C10           -2.0008    -7.0268     7.5020 C.3     
  11 C11           -1.8577    -6.6385     8.9750 C.3     
  12 C12           -2.4238    -5.2582     9.1879 C.2     
  13 N13           -2.5873    -7.5991     9.8063 N.am    
  14 O14           -3.3460    -5.0932     9.9582 O.2     
  15 C15           -1.3157    -8.3733     7.2606 C.3     
  16 C16           -1.4566    -8.7557     5.8098 C.2     
  17 O17           -2.0447    -8.0262     5.0471 O.2     
  18 O18           -0.9288    -9.9069     5.3648 O.3     
  19 C19           -2.1833    -2.0176     7.5135 C.2     
  20 N20           -1.9054    -4.2072     8.5223 N.am    
  21 C21           -2.4558    -2.8653     8.7293 C.3     
  22 C22           -1.7970    -2.2273     9.9540 C.3     
  23 C23           -2.1767    -3.0183    11.2074 C.3     
  24 C24           -1.5180    -2.3802    12.4321 C.3     
  25 C25           -1.8976    -3.1712    13.6856 C.3     
  26 O26           -1.5880    -2.4879     6.5673 O.2     
  27 C27           -3.5734    -0.2600     5.2849 C.3     
  28 C28           -2.4338     0.0544     6.2561 C.3     
  29 C29           -2.4576     1.5214     6.6005 C.2     
  30 N30           -2.6011    -0.7367     7.4777 N.am    
  31 O31           -2.7308     1.8752     7.7279 O.2     
  32 C32           -4.8959     0.2367     5.8724 C.3     
  33 C33           -3.3135     0.4406     3.9497 C.3     
  34 C34           -2.0881    -0.1817     3.2774 C.3     
  35 C35           -1.3710     4.6649     5.0356 C.3     
  36 C36           -2.2883     3.8676     5.9650 C.3     
  37 C37           -3.7142     4.3132     5.7670 C.2     
  38 N38           -2.1753     2.4401     5.6556 N.am    
  39 O39           -4.5535     3.5168     5.4033 O.2     
  40 C40            0.0871     4.3023     5.3240 C.3     
  41 C41            0.9906     5.0877     4.4086 C.2     
  42 O42            0.5168     5.8584     3.6077 O.2     
  43 O43            2.3216     4.9311     4.4830 O.3     
  44 C44           -0.6425   -13.5893    10.8868 C.3     
  45 C45           -1.5619   -13.2313    12.0562 C.3     
  46 C46           -2.4427   -12.0724    11.6661 C.2     
  47 N47           -2.3964   -14.3873    12.3929 N.am    
  48 O48           -3.6488   -12.1996    11.6691 O.2     
  49 C49            0.3360   -14.6815    11.3232 C.3     
  50 C50            1.2416   -15.0342    10.1714 C.2     
  51 O51            1.1166   -14.4677     9.1063 O.2     
  52 N52            2.1903   -15.9791    10.3249 N.am    
  53 C53           -4.0695   -16.0494    14.2472 C.3     
  54 C54           -2.7843   -16.5284    13.5692 C.3     
  55 C55           -1.9258   -15.3393    13.2228 C.2     
  56 N56           -2.0513   -17.4111    14.4802 N.am    
  57 O57           -0.8114   -15.2389    13.6908 O.2     
  58 C58           -4.9950   -17.2207    14.4540 C.2     
  59 C59           -5.9899   -17.6057    13.6392 C.2     
  60 N60           -6.6128   -18.7101    14.1534 N.pl3   
  61 C61           -6.0188   -19.0719    15.3417 C.ar    
  62 C62           -4.9754   -18.1587    15.5789 C.ar    
  63 C63           -6.2516   -20.0936    16.2569 C.ar    
  64 C64           -5.4653   -20.1953    17.3833 C.ar    
  65 C65           -4.4407   -19.2878    17.6160 C.ar    
  66 C66           -4.1856   -18.2853    16.7234 C.ar    
  67 C67           -1.2629   -18.3857    13.9852 C.2     
  68 N68           -0.1168   -20.5294    14.1608 N.am    
  69 C69           -0.6010   -19.3663    14.9187 C.3     
  70 C70            0.6267   -18.7101    15.5848 C.3     
  71 C71            1.6593   -19.8674    15.6270 C.3     
  72 C72            1.3483   -20.6101    14.3036 C.3     
  73 O73           -1.0862   -18.4737    12.7886 O.2     
  74 C74            0.6734   -21.8511    11.5862 C.3     
  75 C75           -0.2449   -22.4751    12.6389 C.3     
  76 C76           -0.8857   -21.3837    13.4570 C.2     
  77 N77           -1.2862   -23.2622    11.9737 N.am    
  78 O78           -2.0933   -21.2741    13.4819 O.2     
  79 C79            1.3240   -22.9592    10.7557 C.3     
  80 C80           -0.1463   -20.9410    10.6693 C.3     
  81 C81            0.7894   -20.2211     9.6962 C.3     
  82 C82           -3.3378   -25.4472    11.8445 C.3     
  83 C83           -2.1128   -25.3485    10.9332 C.3     
  84 C84           -1.0417   -24.5388    11.6174 C.2     
  85 N85           -1.6038   -26.6931    10.6518 N.am    
  86 O86            0.0404   -25.0360    11.8474 O.2     
  87 O87           -2.9464   -25.9764    13.1129 O.3     
  88 C88           -0.3844   -28.8526     8.6305 C.3     
  89 C89           -1.6900   -28.8410     9.4281 C.3     
  90 C90           -2.1330   -27.4171     9.6458 C.2     
  91 N91           -2.7232   -29.5656     8.6840 N.am    
  92 O92           -2.9658   -26.9228     8.9157 O.2     
  93 C93            0.6674   -28.0159     9.3617 C.3     
  94 C94            0.1155   -30.2919     8.4914 C.3     
  95 O95           -2.0490   -31.5113     9.5096 O.2     
  96 C96           -2.8186   -30.9054     8.7943 C.2     
  97 C97           -3.8814   -31.6507     8.0289 C.3     
  98 H98           -3.3855     6.2337     6.2850 H       
  99 H99           -4.9737     5.8845     5.8629 H       
 100 H100          -3.7654    -8.2024    12.1566 H       
 101 H101          -3.6958    -9.7824    12.9733 H       
 102 H102          -3.6427   -10.0640    10.5154 H       
 103 H103          -0.9263   -10.8135    11.2414 H       
 104 H104          -2.8805    -7.6848    14.5771 H       
 105 H105          -1.2059    -7.6409    14.7056 H       
 106 H106          -3.0579    -7.1063     7.2483 H       
 107 H107          -1.5338    -6.2645     6.8783 H       
 108 H108          -0.8035    -6.6455     9.2518 H       
 109 H109          -3.4969    -7.4078    10.0839 H       
 110 H110          -0.2586    -8.2938     7.5144 H       
 111 H111          -1.7826    -9.1356     7.8843 H       
 112 H112          -1.0448   -10.1093     4.4264 H       
 113 H113          -1.1679    -4.3392     7.9062 H       
 114 H114          -3.5316    -2.9347     8.8902 H       
 115 H115          -0.7140    -2.2387     9.8314 H       
 116 H116          -2.1403    -1.1978    10.0562 H       
 117 H117          -3.2597    -3.0069    11.3301 H       
 118 H118          -1.8334    -4.0478    11.1053 H       
 119 H119          -0.4350    -2.3917    12.3095 H       
 120 H120          -1.8612    -1.3508    12.5343 H       
 121 H121          -1.4284    -2.7167    14.5581 H       
 122 H122          -2.9807    -3.1598    13.8082 H       
 123 H123          -1.5544    -4.2007    13.5834 H       
 124 H124          -3.6283    -1.3368     5.1255 H       
 125 H125          -1.4803    -0.1940     5.7901 H       
 126 H126          -3.0125    -0.3387     8.2608 H       
 127 H127          -4.8737     1.3238     5.9498 H       
 128 H128          -5.7179    -0.0646     5.2231 H       
 129 H129          -5.0384    -0.1952     6.8630 H       
 130 H130          -4.1824     0.3225     3.3022 H       
 131 H131          -3.1325     1.5010     4.1250 H       
 132 H132          -1.2022     0.0184     3.8801 H       
 133 H133          -2.2307    -1.2586     3.1873 H       
 134 H134          -1.9584     0.2518     2.2857 H       
 135 H135          -1.6068     4.4249     3.9988 H       
 136 H136          -1.5206     5.7313     5.2047 H       
 137 H137          -1.9944     4.0393     7.0005 H       
 138 H138          -1.8974     2.1561     4.7707 H       
 139 H139           0.3230     4.5423     6.3608 H       
 140 H140           0.2367     3.2360     5.1549 H       
 141 H141           2.8601     5.4564     3.8754 H       
 142 H142          -1.2416   -13.9510    10.0511 H       
 143 H143          -0.0855   -12.7045    10.5784 H       
 144 H144          -0.9588   -12.9543    12.9209 H       
 145 H145          -3.2877   -14.4675    12.0186 H       
 146 H146           0.9351   -14.3198    12.1589 H       
 147 H147          -0.2210   -15.5663    11.6316 H       
 148 H148           2.2902   -16.4321    11.1768 H       
 149 H149           2.7731   -16.2060     9.5835 H       
 150 H150          -3.8269   -15.6034    15.2118 H       
 151 H151          -4.5582   -15.3071    13.6162 H       
 152 H152          -3.0350   -17.0731    12.6589 H       
 153 H153          -2.1333   -17.2940    15.4396 H       
 154 H154          -6.2593   -17.1158    12.7151 H       
 155 H155          -7.3616   -19.1696    13.7422 H       
 156 H156          -7.0464   -20.8043    16.0849 H       
 157 H157          -5.6478   -20.9889    18.0927 H       
 158 H158          -3.8336   -19.3815    18.5043 H       
 159 H159          -3.3855   -17.5842    16.9099 H       
 160 H160          -1.3104   -19.6894    15.6805 H       
 161 H161           0.9984   -17.8836    14.9790 H       
 162 H162           0.3844   -18.3725    16.5925 H       
 163 H163           2.6787   -19.4817    15.6283 H       
 164 H164           1.4867   -20.5137    16.4876 H       
 165 H165           1.6663   -21.6506    14.3688 H       
 166 H166           1.8389   -20.1143    13.4660 H       
 167 H167           1.4482   -21.2655    12.0811 H       
 168 H168           0.3391   -23.1235    13.2921 H       
 169 H169          -2.1516   -22.8646    11.7898 H       
 170 H170           0.5493   -23.5448    10.2608 H       
 171 H171           1.9782   -22.5146    10.0057 H       
 172 H172           1.9080   -23.6075    11.4088 H       
 173 H173          -0.8626   -21.5409    10.1080 H       
 174 H174          -0.6807   -20.2056    11.2708 H       
 175 H175           1.5057   -19.6212    10.2576 H       
 176 H176           1.3238   -20.9565     9.0948 H       
 177 H177           0.2054   -19.5727     9.0430 H       
 178 H178          -3.7693   -24.4558    11.9819 H       
 179 H179          -4.0775   -26.1055    11.3888 H       
 180 H180          -2.3936   -24.8633     9.9984 H       
 181 H181          -0.8858   -27.0622    11.1895 H       
 182 H182          -3.6744   -26.0669    13.7429 H       
 183 H183          -0.5596   -28.4315     7.6405 H       
 184 H184          -1.5309   -29.3235    10.3924 H       
 185 H185          -3.3387   -29.0810     8.1119 H       
 186 H186           1.6279   -28.1174     8.8566 H       
 187 H187           0.3646   -26.9688     9.3594 H       
 188 H188           0.7590   -28.3654    10.3901 H       
 189 H189           0.2907   -30.7130     9.4814 H       
 190 H190          -0.6338   -30.8880     7.9704 H       
 191 H191           1.0456   -30.3002     7.9232 H       
 192 H192          -3.4905   -31.9416     7.0539 H       
 193 H193          -4.1716   -32.5424     8.5847 H       
 194 H194          -4.7510   -31.0074     7.8945 H       
@<TRIPOS>BOND
   1    1   37 am
   2    1   98 1
   3    1   99 1
   4    2    7 1
   5    2    3 1
   6    2  100 1
   7    2  101 1
   8    3    5 1
   9    3    4 1
  10    3  102 1
  11    4    6 2
  12    4   13 am
  13    5   46 am
  14    5  103 1
  15    7    8 am
  16    7    9 2
  17    8  104 1
  18    8  105 1
  19   10   15 1
  20   10   11 1
  21   10  106 1
  22   10  107 1
  23   11   13 1
  24   11   12 1
  25   11  108 1
  26   12   14 2
  27   12   20 am
  28   13  109 1
  29   15   16 1
  30   15  110 1
  31   15  111 1
  32   16   17 2
  33   16   18 1
  34   18  112 1
  35   19   26 2
  36   19   21 1
  37   19   30 am
  38   20   21 1
  39   20  113 1
  40   21   22 1
  41   21  114 1
  42   22   23 1
  43   22  115 1
  44   22  116 1
  45   23   24 1
  46   23  117 1
  47   23  118 1
  48   24   25 1
  49   24  119 1
  50   24  120 1
  51   25  121 1
  52   25  122 1
  53   25  123 1
  54   27   28 1
  55   27   32 1
  56   27   33 1
  57   27  124 1
  58   28   30 1
  59   28   29 1
  60   28  125 1
  61   29   31 2
  62   29   38 am
  63   30  126 1
  64   32  127 1
  65   32  128 1
  66   32  129 1
  67   33   34 1
  68   33  130 1
  69   33  131 1
  70   34  132 1
  71   34  133 1
  72   34  134 1
  73   35   40 1
  74   35   36 1
  75   35  135 1
  76   35  136 1
  77   36   38 1
  78   36   37 1
  79   36  137 1
  80   37   39 2
  81   38  138 1
  82   40   41 1
  83   40  139 1
  84   40  140 1
  85   41   42 2
  86   41   43 1
  87   43  141 1
  88   44   49 1
  89   44   45 1
  90   44  142 1
  91   44  143 1
  92   45   47 1
  93   45   46 1
  94   45  144 1
  95   46   48 2
  96   47   55 am
  97   47  145 1
  98   49   50 1
  99   49  146 1
 100   49  147 1
 101   50   51 2
 102   50   52 am
 103   52  148 1
 104   52  149 1
 105   53   58 1
 106   53   54 1
 107   53  150 1
 108   53  151 1
 109   54   55 1
 110   54   56 1
 111   54  152 1
 112   55   57 2
 113   56   67 am
 114   56  153 1
 115   58   59 2
 116   58   62 1
 117   59   60 1
 118   59  154 1
 119   60   61 1
 120   60  155 1
 121   61   62 ar
 122   61   63 ar
 123   62   66 ar
 124   63   64 ar
 125   63  156 1
 126   64   65 ar
 127   64  157 1
 128   65   66 ar
 129   65  158 1
 130   66  159 1
 131   67   73 2
 132   67   69 1
 133   68   72 1
 134   68   69 1
 135   68   76 am
 136   69   70 1
 137   69  160 1
 138   70   71 1
 139   70  161 1
 140   70  162 1
 141   71   72 1
 142   71  163 1
 143   71  164 1
 144   72  165 1
 145   72  166 1
 146   74   75 1
 147   74   79 1
 148   74   80 1
 149   74  167 1
 150   75   77 1
 151   75   76 1
 152   75  168 1
 153   76   78 2
 154   77   84 am
 155   77  169 1
 156   79  170 1
 157   79  171 1
 158   79  172 1
 159   80   81 1
 160   80  173 1
 161   80  174 1
 162   81  175 1
 163   81  176 1
 164   81  177 1
 165   82   87 1
 166   82   83 1
 167   82  178 1
 168   82  179 1
 169   83   85 1
 170   83   84 1
 171   83  180 1
 172   84   86 2
 173   85   90 am
 174   85  181 1
 175   87  182 1
 176   88   93 1
 177   88   94 1
 178   88   89 1
 179   88  183 1
 180   89   91 1
 181   89   90 1
 182   89  184 1
 183   90   92 2
 184   91   96 am
 185   91  185 1
 186   93  186 1
 187   93  187 1
 188   93  188 1
 189   94  189 1
 190   94  190 1
 191   94  191 1
 192   95   96 2
 193   96   97 1
 194   97  192 1
 195   97  193 1
 196   97  194 1

#	End of record

