#	Name: ASD01881913
#	Creating user name:	WinNT
#	Creation time:	15. 06. 2019 19:43

#	Modifying user name:	WinNT
#	Modification time:	15. 06. 2019 19:43

#	Program:	/corina/corina34_cracker 3.40 0067  02.08.2006

@<TRIPOS>MOLECULE
ASD01881913
  47   50    0    0    0
SMALL
NO_CHARGES


@<TRIPOS>ATOM
   1 N1             0.0267     1.4502     0.0476 N.3     
   2 C2            -0.1690     0.0033    -0.1089 C.3     
   3 C3             0.5724    -0.4810    -1.3571 C.3     
   4 C4             2.0631    -0.1610    -1.2156 C.3     
   5 C5             2.2359     1.3458    -1.0054 C.3     
   6 C6             1.4463     1.7771     0.2326 C.3     
   7 C7             2.6141    -0.8855    -0.0587 C.1     
   8 N8             3.0393    -1.4447     0.8341 N.1     
   9 F9             2.7374    -0.5514    -2.3776 F       
  10 C10           -0.7829     1.9741     1.1559 C.3     
  11 C11           -0.4790     3.4608     1.3510 C.3     
  12 O12           -0.8482     4.1811     0.1733 O.3     
  13 N13           -0.1202     9.6055    -0.0504 N.pl3   
  14 N14           -0.6212     9.7751    -1.3496 N.2     
  15 N15           -0.9841     8.6346    -1.8208 N.2     
  16 C16           -0.7635     7.6615    -0.9145 C.ar    
  17 C17           -0.2094     8.2610     0.2298 C.ar    
  18 C18           -0.9778     6.2763    -0.9258 C.ar    
  19 C19           -0.6419     5.5252     0.1815 C.ar    
  20 C20           -0.0933     6.1335     1.3080 C.ar    
  21 C21            0.1201     7.4830     1.3339 C.ar    
  22 C22            0.4012    10.6523     0.8320 C.3     
  23 C23           -0.7400    11.2225     1.6766 C.3     
  24 C24           -0.3787    12.2513     2.7499 C.3     
  25 C25           -1.0996    12.6960     1.4757 C.3     
  26 Br26          -1.7224     5.4418    -2.4506 Br      
  27 H27            0.2209    -0.5130     0.7683 H       
  28 H28           -1.2328    -0.2102    -0.2127 H       
  29 H29            0.4398    -1.5576    -1.4643 H       
  30 H30            0.1735     0.0248    -2.2364 H       
  31 H31            3.2919     1.5743    -0.8613 H       
  32 H32            1.8633     1.8802    -1.8792 H       
  33 H33            1.5557     2.8519     0.3768 H       
  34 H34            1.8287     1.2525     1.1082 H       
  35 H35           -1.8405     1.8466     0.9251 H       
  36 H36           -0.5423     1.4310     2.0699 H       
  37 H37           -1.0467     3.8391     2.2012 H       
  38 H38            0.5867     3.5924     1.5382 H       
  39 H39            0.1649     5.5338     2.1682 H       
  40 H40            0.5458     7.9453     2.2123 H       
  41 H41            1.1622    10.2291     1.4877 H       
  42 H42            0.8412    11.4481     0.2310 H       
  43 H43           -1.5535    10.5310     1.8958 H       
  44 H44           -0.9548    12.2369     3.6751 H       
  45 H45            0.6720    12.5219     2.8542 H       
  46 H46           -0.5231    13.2592     0.7418 H       
  47 H47           -2.1499    12.9742     1.5626 H       
@<TRIPOS>BOND
   1    1    2 1
   2    1    6 1
   3    1   10 1
   4    2    3 1
   5    2   27 1
   6    2   28 1
   7    3    4 1
   8    3   29 1
   9    3   30 1
  10    4    5 1
  11    4    7 1
  12    4    9 1
  13    5    6 1
  14    5   31 1
  15    5   32 1
  16    6   33 1
  17    6   34 1
  18    7    8 3
  19   10   11 1
  20   10   35 1
  21   10   36 1
  22   11   12 1
  23   11   37 1
  24   11   38 1
  25   12   19 1
  26   13   14 1
  27   13   17 1
  28   13   22 1
  29   14   15 2
  30   15   16 1
  31   16   17 ar
  32   16   18 ar
  33   17   21 ar
  34   18   19 ar
  35   18   26 1
  36   19   20 ar
  37   20   21 ar
  38   20   39 1
  39   21   40 1
  40   22   23 1
  41   22   41 1
  42   22   42 1
  43   23   24 1
  44   23   25 1
  45   23   43 1
  46   24   25 1
  47   24   44 1
  48   24   45 1
  49   25   46 1
  50   25   47 1

#	End of record

