#	Name: ASD01028611
#	Creating user name:	WinNT
#	Creation time:	15. 06. 2019 18:57

#	Modifying user name:	WinNT
#	Modification time:	15. 06. 2019 18:57

#	Program:	/corina/corina34_cracker 3.40 0067  02.08.2006

@<TRIPOS>MOLECULE
ASD01028611
  26   27    0    0    0
SMALL
NO_CHARGES


@<TRIPOS>ATOM
   1 C1            -0.0184     1.5028     0.0103 C.2     
   2 C2             0.0021    -0.0041     0.0020 C.3     
   3 C3            -0.4972    -0.5134    -1.3515 C.3     
   4 O4             1.0197     2.1211     0.0037 O.2     
   5 O5            -1.1898     2.1580     0.0194 O.3     
   6 N6             5.2585    -1.8229     0.8142 N.ar    
   7 C7             5.8128    -1.7767     2.0011 C.ar    
   8 C8             5.1311    -1.2792     3.1099 C.ar    
   9 C9             3.8509    -0.8230     2.9747 C.ar    
  10 C10            3.2590    -0.8738     1.6984 C.ar    
  11 C11            1.9471    -0.4232     1.4824 C.ar    
  12 C12            1.4103    -0.4886     0.2327 C.ar    
  13 C13            2.1456    -0.9981    -0.8353 C.ar    
  14 C14            3.4197    -1.4441    -0.6616 C.ar    
  15 C15            4.0089    -1.3925     0.6135 C.ar    
  16 F16           -0.8297    -0.4873     1.0178 F       
  17 H17            0.1508    -0.1369    -2.1430 H       
  18 H18           -0.4825    -1.6033    -1.3575 H       
  19 H19           -1.5158    -0.1630    -1.5184 H       
  20 H20           -1.1523     3.1243     0.0245 H       
  21 H21            6.8247    -2.1340     2.1230 H       
  22 H22            5.6146    -1.2546     4.0753 H       
  23 H23            3.3077    -0.4344     3.8234 H       
  24 H24            1.3671    -0.0265     2.3026 H       
  25 H25            1.6972    -1.0401    -1.8170 H       
  26 H26            3.9758    -1.8364    -1.5002 H       
@<TRIPOS>BOND
   1    1    2 1
   2    1    4 2
   3    1    5 1
   4    2    3 1
   5    2   12 1
   6    2   16 1
   7    3   17 1
   8    3   18 1
   9    3   19 1
  10    5   20 1
  11    6    7 ar
  12    6   15 ar
  13    7    8 ar
  14    7   21 1
  15    8    9 ar
  16    8   22 1
  17    9   10 ar
  18    9   23 1
  19   10   11 ar
  20   10   15 ar
  21   11   12 ar
  22   11   24 1
  23   12   13 ar
  24   13   14 ar
  25   13   25 1
  26   14   15 ar
  27   14   26 1

#	End of record

