#	Name: ASD00960161
#	Creating user name:	WinNT
#	Creation time:	15. 06. 2019 18:53

#	Modifying user name:	WinNT
#	Modification time:	15. 06. 2019 18:53

#	Program:	/corina/corina34_cracker 3.40 0067  02.08.2006

@<TRIPOS>MOLECULE
ASD00960161
  31   32    0    0    0
SMALL
NO_CHARGES


@<TRIPOS>ATOM
   1 C1            -0.0187     1.5258     0.0104 C.3     
   2 C2            -0.7939     2.0498     1.2396 C.3     
   3 O3            -2.1388     2.2699     0.7613 O.3     
   4 C4            -1.9852     2.8481    -0.5533 C.3     
   5 C5            -3.2663     2.6636    -1.3692 C.3     
   6 C6            -0.7904     1.0203     2.3401 C.2     
   7 C7             0.1891     0.8540     3.2612 C.2     
   8 N8            -1.7725     0.1096     2.5752 N.pl3   
   9 C9            -1.4125    -0.6549     3.6603 C.2     
  10 C10           -0.1869    -0.2016     4.1013 C.2     
  11 C11           -0.8173     2.0630    -1.1982 C.3     
  12 C12            0.0021    -0.0041     0.0020 C.3     
  13 F13            1.3264     1.5774     3.3528 F       
  14 O14            1.3133     2.0434     0.0005 O.3     
  15 *15            2.0754     1.6441    -1.1166 Du      
  16 O16           -4.3194     3.4310    -0.7825 O.3     
  17 *17           -5.5503     3.3296    -1.4626 Du      
  18 O18           -0.0073     2.9327    -1.9916 O.3     
  19 *19           -0.3985     3.0053    -3.3443 Du      
  20 C20           -2.1741    -1.7247     4.2315 C.1     
  21 N21           -2.7783    -2.5733     4.6845 N.1     
  22 H22           -0.3588     2.9849     1.5922 H       
  23 H23           -1.7328     3.9056    -0.4756 H       
  24 H24           -3.0974     3.0006    -2.3919 H       
  25 H25           -3.5446     1.6097    -1.3752 H       
  26 H26           -2.5908     0.0150     2.0629 H       
  27 H27            0.3768    -0.5878     4.9376 H       
  28 H28           -1.1981     1.2386    -1.8010 H       
  29 H29            0.5184    -0.3653     0.8914 H       
  30 H30           -1.0206    -0.3813    -0.0028 H       
  31 H31            0.5232    -0.3555    -0.8885 H       
@<TRIPOS>BOND
   1    1   12 1
   2    1   14 1
   3    1    2 1
   4    1   11 1
   5    2    3 1
   6    2    6 1
   7    2   22 1
   8    3    4 1
   9    4   11 1
  10    4    5 1
  11    4   23 1
  12    5   16 1
  13    5   24 1
  14    5   25 1
  15    6    7 2
  16    6    8 1
  17    7   13 1
  18    7   10 1
  19    8    9 1
  20    8   26 1
  21    9   10 2
  22    9   20 1
  23   10   27 1
  24   11   18 1
  25   11   28 1
  26   12   29 1
  27   12   30 1
  28   12   31 1
  29   14   15 1
  30   16   17 1
  31   18   19 1
  32   20   21 3

#	End of record

