#	Name: ASD04882599
#	Creating user name:	WinNT
#	Creation time:	15. 06. 2019 20:55

#	Modifying user name:	WinNT
#	Modification time:	15. 06. 2019 20:55

#	Program:	/corina/corina34_cracker 3.40 0067  02.08.2006

@<TRIPOS>MOLECULE
ASD04882599
  75   81    0    0    0
SMALL
NO_CHARGES


@<TRIPOS>ATOM
   1 C1             0.2302     1.2692     0.2261 C.ar    
   2 C2             0.0824    -0.0679    -0.1530 C.ar    
   3 C3            -1.1826    -0.5833    -0.4116 C.ar    
   4 C4            -2.2943     0.2212    -0.2952 C.ar    
   5 C5            -2.1536     1.5594     0.0831 C.ar    
   6 C6            -0.8835     2.0784     0.3496 C.ar    
   7 N7             1.2037    -0.8848    -0.2724 N.3     
   8 C8             1.1200    -2.0313     0.6431 C.3     
   9 C9             1.3823    -1.3346    -1.6600 C.3     
  10 C10            2.6657    -2.1619    -1.7641 C.3     
  11 N11            2.5820    -3.3084    -0.8486 N.3     
  12 C12            2.4033    -2.8586     0.5390 C.3     
  13 C13           -3.3446     2.4211     0.2073 C.2     
  14 O14           -3.2143     3.6128     0.4108 O.2     
  15 N15           -4.5771     1.8874     0.0951 N.am    
  16 N16            1.5056     1.7873     0.4863 N.am    
  17 C17            3.7067    -4.1278    -0.9683 C.ar    
  18 C18            3.5627    -5.4569    -1.3449 C.ar    
  19 C19            4.6772    -6.2643    -1.4628 C.ar    
  20 C20            5.9350    -5.7510    -1.2060 C.ar    
  21 C21            6.0820    -4.4279    -0.8308 C.ar    
  22 C22            4.9726    -3.6137    -0.7166 C.ar    
  23 C23            1.6397     2.9150     1.2119 C.2     
  24 C24            2.9572     3.5447     1.3522 C.2     
  25 C25            4.1296     3.1083     0.8098 C.2     
  26 N26            5.0861     3.9663     1.1791 N.2     
  27 C27            4.5549     4.9027     1.9187 C.2     
  28 O28            3.2434     4.6745     2.0402 O.3     
  29 O29            0.6677     3.4111     1.7509 O.2     
  30 C30            2.1920    -6.0176    -1.6241 C.3     
  31 C31           -4.8768     0.4932    -0.2676 C.3     
  32 C32            5.3008     6.0594     2.5325 C.3     
  33 C33           -6.4154     0.3439    -0.2951 C.3     
  34 C34           -6.8931     1.7945    -0.4594 C.3     
  35 C35           -5.8485     2.6047     0.3225 C.3     
  36 C36           -7.1965     2.2528    -1.8809 C.3     
  37 O37           -8.3191     2.9394    -1.2837 O.3     
  38 C38           -8.3553     2.0700    -0.1300 C.3     
  39 C39            6.4340     5.7319     3.5069 C.3     
  40 C40            6.7567     6.2653     2.1097 C.3     
  41 H41           -1.2938    -1.6168    -0.7047 H       
  42 H42           -3.2757    -0.1821    -0.4967 H       
  43 H43           -0.7717     3.1120     0.6421 H       
  44 H44            1.0006    -1.6723     1.6654 H       
  45 H45            0.2649    -2.6509     0.3727 H       
  46 H46            0.5303    -1.9462    -1.9566 H       
  47 H47            1.4542    -0.4677    -2.3169 H       
  48 H48            2.7851    -2.5209    -2.7864 H       
  49 H49            3.5208    -1.5423    -1.4937 H       
  50 H50            3.2554    -2.2470     0.8356 H       
  51 H51            2.3314    -3.7255     1.1959 H       
  52 H52            2.2921     1.3343     0.1441 H       
  53 H53            4.5659    -7.2979    -1.7556 H       
  54 H54            6.8047    -6.3846    -1.2983 H       
  55 H55            7.0659    -4.0302    -0.6306 H       
  56 H56            5.0881    -2.5805    -0.4239 H       
  57 H57            4.2615     2.2304     0.1947 H       
  58 H58            1.9522    -5.8828    -2.6788 H       
  59 H59            2.1777    -7.0800    -1.3811 H       
  60 H60            1.4548    -5.4954    -1.0142 H       
  61 H61           -4.4653     0.2699    -1.2519 H       
  62 H62           -4.4523    -0.1822     0.4752 H       
  63 H63            4.7044     6.9491     2.7348 H       
  64 H64           -6.7295    -0.2646    -1.1431 H       
  65 H65           -6.7794    -0.0790     0.6412 H       
  66 H66           -6.0976     2.6223     1.3835 H       
  67 H67           -5.7829     3.6194    -0.0702 H       
  68 H68           -6.4432     2.9189    -2.3014 H       
  69 H69           -7.4799     1.4448    -2.5554 H       
  70 H70           -9.0064     1.2039    -0.2487 H       
  71 H71           -8.5052     2.5936     0.8142 H       
  72 H72            6.5834     6.4063     4.3501 H       
  73 H73            6.6400     4.6798     3.7040 H       
  74 H74            7.1750     5.5642     1.3876 H       
  75 H75            7.1185     7.2907     2.0336 H       
@<TRIPOS>BOND
   1    1    2 ar
   2    1   16 1
   3    1    6 ar
   4    2    3 ar
   5    2    7 1
   6    3    4 ar
   7    3   41 1
   8    4    5 ar
   9    4   42 1
  10    5    6 ar
  11    5   13 1
  12    6   43 1
  13    7    8 1
  14    7    9 1
  15    8   12 1
  16    8   44 1
  17    8   45 1
  18    9   10 1
  19    9   46 1
  20    9   47 1
  21   10   11 1
  22   10   48 1
  23   10   49 1
  24   11   12 1
  25   11   17 1
  26   12   50 1
  27   12   51 1
  28   13   14 2
  29   13   15 am
  30   15   31 1
  31   15   35 1
  32   16   23 am
  33   16   52 1
  34   17   18 ar
  35   17   22 ar
  36   18   19 ar
  37   18   30 1
  38   19   20 ar
  39   19   53 1
  40   20   21 ar
  41   20   54 1
  42   21   22 ar
  43   21   55 1
  44   22   56 1
  45   23   24 1
  46   23   29 2
  47   24   25 2
  48   24   28 1
  49   25   26 1
  50   25   57 1
  51   26   27 2
  52   27   28 1
  53   27   32 1
  54   30   58 1
  55   30   59 1
  56   30   60 1
  57   31   33 1
  58   31   61 1
  59   31   62 1
  60   32   39 1
  61   32   40 1
  62   32   63 1
  63   33   34 1
  64   33   64 1
  65   33   65 1
  66   34   35 1
  67   34   36 1
  68   34   38 1
  69   35   66 1
  70   35   67 1
  71   36   37 1
  72   36   68 1
  73   36   69 1
  74   37   38 1
  75   38   70 1
  76   38   71 1
  77   39   40 1
  78   39   72 1
  79   39   73 1
  80   40   74 1
  81   40   75 1

#	End of record

