#	Name: ASD01140488
#	Creating user name:	WinNT
#	Creation time:	15. 06. 2019 19:01

#	Modifying user name:	WinNT
#	Modification time:	15. 06. 2019 19:01

#	Program:	/corina/corina34_cracker 3.40 0067  02.08.2006

@<TRIPOS>MOLECULE
ASD01140488
  51   54    0    0    0
SMALL
NO_CHARGES


@<TRIPOS>ATOM
   1 C1            -0.0169     1.3931     0.0097 C.ar    
   2 C2             0.0021    -0.0041     0.0020 C.ar    
   3 C3             1.2048    -0.6744    -0.0131 C.ar    
   4 C4             2.3990     0.0369    -0.0206 C.ar    
   5 C5             2.3844     1.4268    -0.0130 C.ar    
   6 C6             1.1858     2.1045     0.0020 C.ar    
   7 O7             3.5823    -0.6274    -0.0351 O.3     
   8 C8             4.7712     0.1653    -0.0422 C.3     
   9 C9            -1.3039     2.1157     0.0197 C.2     
  10 N10           -1.3202     3.4633     0.0271 N.am    
  11 C11           -2.5976     4.1804     0.0371 C.3     
  12 O12           -2.3495     1.4951     0.0213 O.2     
  13 C13           -2.3362     5.6879     0.0441 C.3     
  14 C14           -3.6502     6.4256     0.0543 C.2     
  15 N15           -5.4087     7.4104    -0.6353 N.2     
  16 N16           -4.3322     6.8048    -0.9984 N.2     
  17 N17           -4.3395     6.8095     1.1496 N.pl3   
  18 C18           -5.4659     7.4432     0.6867 C.2     
  19 C19           -6.3931     7.9654     1.6090 C.2     
  20 N20           -4.1221     6.6832     2.5231 N.2     
  21 C21           -4.9893     7.1672     3.3823 C.2     
  22 C22           -6.1511     7.8303     2.9393 C.2     
  23 S23           -4.6916     6.9941     5.1103 S.3     
  24 C24           -3.1107     6.1061     5.1651 C.3     
  25 C25           -2.7125     5.8774     6.6004 C.ar    
  26 C26           -1.9483     6.8191     7.2640 C.ar    
  27 C27           -3.1164     4.7278     7.2555 C.ar    
  28 C28           -2.7507     4.5181     8.5732 C.ar    
  29 C29           -1.9814     5.4580     9.2348 C.ar    
  30 C30           -1.5823     6.6099     8.5801 C.ar    
  31 Cl31          -4.0825     3.5490     6.4244 Cl      
  32 Cl32          -1.5220     5.1956    10.8883 Cl      
  33 H33           -0.9253    -0.5575     0.0083 H       
  34 H34            1.2203    -1.7543    -0.0187 H       
  35 H35            3.3144     1.9759    -0.0186 H       
  36 H36            1.1753     3.1845     0.0076 H       
  37 H37            4.7802     0.7989    -0.9291 H       
  38 H38            4.7969     0.7899     0.8508 H       
  39 H39            5.6436    -0.4882    -0.0536 H       
  40 H40           -0.4860     3.9584     0.0259 H       
  41 H41           -3.1702     3.9151    -0.8516 H       
  42 H42           -3.1617     3.9054     0.9283 H       
  43 H43           -1.7636     5.9533     0.9328 H       
  44 H44           -1.7720     5.9629    -0.8471 H       
  45 H45           -7.2848     8.4671     1.2635 H       
  46 H46           -6.8532     8.2262     3.6580 H       
  47 H47           -3.2156     5.1460     4.6598 H       
  48 H48           -2.3440     6.6979     4.6652 H       
  49 H49           -1.6369     7.7185     6.7536 H       
  50 H50           -3.0661     3.6209     9.0851 H       
  51 H51           -0.9850     7.3458     9.0979 H       
@<TRIPOS>BOND
   1    1    2 ar
   2    1    6 ar
   3    1    9 1
   4    2    3 ar
   5    2   33 1
   6    3    4 ar
   7    3   34 1
   8    4    5 ar
   9    4    7 1
  10    5    6 ar
  11    5   35 1
  12    6   36 1
  13    7    8 1
  14    8   37 1
  15    8   38 1
  16    8   39 1
  17    9   10 am
  18    9   12 2
  19   10   11 1
  20   10   40 1
  21   11   13 1
  22   11   41 1
  23   11   42 1
  24   13   14 1
  25   13   43 1
  26   13   44 1
  27   14   17 1
  28   14   16 2
  29   15   16 1
  30   15   18 2
  31   17   20 1
  32   17   18 1
  33   18   19 1
  34   19   22 2
  35   19   45 1
  36   20   21 2
  37   21   22 1
  38   21   23 1
  39   22   46 1
  40   23   24 1
  41   24   25 1
  42   24   47 1
  43   24   48 1
  44   25   27 ar
  45   25   26 ar
  46   26   30 ar
  47   26   49 1
  48   27   28 ar
  49   27   31 1
  50   28   29 ar
  51   28   50 1
  52   29   30 ar
  53   29   32 1
  54   30   51 1

#	End of record

