#	Name: ASD01912859
#	Creating user name:	WinNT
#	Creation time:	15. 06. 2019 20:00

#	Modifying user name:	WinNT
#	Modification time:	15. 06. 2019 20:00

#	Program:	/corina/corina34_cracker 3.40 0067  02.08.2006

@<TRIPOS>MOLECULE
ASD01912859
  46   49    0    0    0
SMALL
NO_CHARGES


@<TRIPOS>ATOM
   1 C1            -0.0165     1.3669     0.0096 C.2     
   2 N2             0.0021    -0.0041     0.0020 N.pl3   
   3 C3            -1.2022    -0.6920     0.0094 C.2     
   4 C4            -2.3629    -0.0497     0.0235 C.2     
   5 N5            -2.4358     1.3308     0.0312 N.am    
   6 C6            -1.3019     2.0668     0.0309 C.2     
   7 C7             1.3015     1.7837    -0.0008 C.2     
   8 C8             2.0550     0.6110    -0.0143 C.2     
   9 N9             1.2243    -0.4045    -0.0118 N.2     
  10 O10           -1.3488     3.2837     0.0380 O.2     
  11 C11           -3.6799     1.9645     0.0456 C.ar    
  12 C12            3.5595     0.5249    -0.0295 C.3     
  13 O13            4.1121     1.8428    -0.0282 O.3     
  14 C14            5.4673     1.9435    -0.0410 C.ar    
  15 C15            6.0712     3.1925    -0.0405 C.ar    
  16 C16            7.4489     3.2923    -0.0536 C.ar    
  17 C17            8.2260     2.1487    -0.0672 C.ar    
  18 C18            7.6265     0.9027    -0.0682 C.ar    
  19 C19            6.2492     0.7976    -0.0489 C.ar    
  20 N20           -3.7432     3.2846    -0.0475 N.ar    
  21 C21           -4.8359     1.2037     0.1517 C.ar    
  22 C22           -6.0673     1.8401     0.1653 C.ar    
  23 C23           -6.0985     3.2252     0.0717 C.ar    
  24 C24           -4.8994     3.9254    -0.0379 C.ar    
  25 O25           -7.2858     3.8897     0.0809 O.3     
  26 C26           -8.4710     3.0988     0.1899 C.3     
  27 O27           -4.9179     5.2797    -0.1300 O.3     
  28 C28           -3.6553     5.9398    -0.2401 C.3     
  29 H29           -1.1950    -1.7720     0.0032 H       
  30 H30           -3.2785    -0.6226     0.0289 H       
  31 H31            1.6685     2.7994     0.0006 H       
  32 H32            3.9016    -0.0134     0.8543 H       
  33 H33            3.8840    -0.0042    -0.9255 H       
  34 H34            5.4647     4.0861    -0.0302 H       
  35 H35            7.9195     4.2643    -0.0536 H       
  36 H36            9.3029     2.2288    -0.0775 H       
  37 H37            8.2356     0.0109    -0.0796 H       
  38 H38            5.7814    -0.1759    -0.0497 H       
  39 H39           -4.7766     0.1276     0.2224 H       
  40 H40           -6.9818     1.2714     0.2466 H       
  41 H41           -9.3445     3.7508     0.1855 H       
  42 H42           -8.5272     2.4103    -0.6532 H       
  43 H43           -8.4453     2.5321     1.1207 H       
  44 H44           -3.0496     5.7142     0.6376 H       
  45 H45           -3.1405     5.5923    -1.1359 H       
  46 H46           -3.8126     7.0163    -0.3061 H       
@<TRIPOS>BOND
   1    1    2 1
   2    1    7 2
   3    1    6 1
   4    2    3 1
   5    2    9 1
   6    3    4 2
   7    3   29 1
   8    4    5 1
   9    4   30 1
  10    5    6 am
  11    5   11 1
  12    6   10 2
  13    7    8 1
  14    7   31 1
  15    8    9 2
  16    8   12 1
  17   11   20 ar
  18   11   21 ar
  19   12   13 1
  20   12   32 1
  21   12   33 1
  22   13   14 1
  23   14   15 ar
  24   14   19 ar
  25   15   16 ar
  26   15   34 1
  27   16   17 ar
  28   16   35 1
  29   17   18 ar
  30   17   36 1
  31   18   19 ar
  32   18   37 1
  33   19   38 1
  34   20   24 ar
  35   21   22 ar
  36   21   39 1
  37   22   23 ar
  38   22   40 1
  39   23   24 ar
  40   23   25 1
  41   24   27 1
  42   25   26 1
  43   26   41 1
  44   26   42 1
  45   26   43 1
  46   27   28 1
  47   28   44 1
  48   28   45 1
  49   28   46 1

#	End of record

