#	Name: ASD01811678
#	Creating user name:	WinNT
#	Creation time:	15. 06. 2019 19:27

#	Modifying user name:	WinNT
#	Modification time:	15. 06. 2019 19:27

#	Program:	/corina/corina34_cracker 3.40 0067  02.08.2006

@<TRIPOS>MOLECULE
ASD01811678
  61   65    0    0    0
SMALL
NO_CHARGES


@<TRIPOS>ATOM
   1 C1            -0.0167     1.3805     0.0096 C.ar    
   2 C2             0.0021    -0.0041     0.0020 C.ar    
   3 C3             1.2075    -0.6836    -0.0127 C.ar    
   4 C4             2.3988     0.0118    -0.0203 C.ar    
   5 C5             2.3881     1.4079    -0.0132 C.ar    
   6 C6             1.1658     2.0836     0.0021 C.ar    
   7 C7            -1.2939    -0.7731     0.0103 C.3     
   8 C8             3.4708     2.4102    -0.0183 C.2     
   9 N9             2.9565     3.6521    -0.0072 N.am    
  10 C10            1.4923     3.5561     0.0064 C.3     
  11 O11            4.6581     2.1501    -0.0300 O.2     
  12 C12            3.7301     4.8962    -0.0086 C.3     
  13 C13            4.5993     4.9548    -1.2663 C.3     
  14 C14            5.4073     6.2541    -1.2678 C.3     
  15 C15            6.3016     6.2999    -0.0272 C.3     
  16 C16            5.4324     6.2412     1.2305 C.3     
  17 C17            4.6244     4.9420     1.2320 C.3     
  18 O18            3.7640     4.9120    -2.4250 O.3     
  19 C19            1.2188    -2.1905    -0.0199 C.3     
  20 C20            1.0853    -2.6871    -1.4364 C.ar    
  21 C21            2.2149    -2.9084    -2.2104 C.ar    
  22 C22            2.0486    -3.3652    -3.5070 C.ar    
  23 C23            0.7599    -3.5856    -3.9867 C.ar    
  24 N24           -0.2949    -3.3616    -3.2138 N.ar    
  25 C25           -0.1649    -2.9321    -1.9756 C.ar    
  26 C26            0.5649    -4.0747    -5.3740 C.ar    
  27 C27            1.6577    -4.4169    -6.1746 C.ar    
  28 C28            1.4314    -4.8681    -7.4594 C.ar    
  29 N29            0.2051    -4.9775    -7.9322 N.ar    
  30 C30           -0.8534    -4.6650    -7.2096 C.ar    
  31 C31           -0.7173    -4.2110    -5.9136 C.ar    
  32 C32           -2.2299    -4.8111    -7.8054 C.3     
  33 H33           -0.9590     1.9081     0.0170 H       
  34 H34            3.3374    -0.5224    -0.0314 H       
  35 H35           -1.6162    -0.9530    -1.0154 H       
  36 H36           -1.1473    -1.7267     0.5176 H       
  37 H37           -2.0556    -0.1960     0.5345 H       
  38 H38            1.0774     4.0343    -0.8809 H       
  39 H39            1.0945     4.0255     0.9061 H       
  40 H40            3.0494     5.7474     0.0026 H       
  41 H41            5.2801     4.1036    -1.2776 H       
  42 H42            6.0265     6.2958    -2.1639 H       
  43 H43            4.7265     7.1053    -1.2566 H       
  44 H44            6.9823     5.4487    -0.0385 H       
  45 H45            6.8772     7.2255    -0.0283 H       
  46 H46            6.0695     6.2739     2.1143 H       
  47 H47            4.7516     7.0924     1.2417 H       
  48 H48            4.0052     4.9002     2.1280 H       
  49 H49            5.3052     4.0908     1.2208 H       
  50 H50            4.2490     4.9455    -3.2609 H       
  51 H51            2.1570    -2.5488     0.4038 H       
  52 H52            0.3854    -2.5629     0.5758 H       
  53 H53            3.2020    -2.7280    -1.8108 H       
  54 H54            2.9062    -3.5478    -4.1375 H       
  55 H55           -1.0466    -2.7607    -1.3759 H       
  56 H56            2.6646    -4.3295    -5.7939 H       
  57 H57            2.2697    -5.1347    -8.0859 H       
  58 H58           -1.5882    -3.9570    -5.3276 H       
  59 H59           -2.6096    -5.8123    -7.6014 H       
  60 H60           -2.8977    -4.0721    -7.3628 H       
  61 H61           -2.1779    -4.6548    -8.8829 H       
@<TRIPOS>BOND
   1    1    2 ar
   2    1    6 ar
   3    1   33 1
   4    2    3 ar
   5    2    7 1
   6    3    4 ar
   7    3   19 1
   8    4    5 ar
   9    4   34 1
  10    5    6 ar
  11    5    8 1
  12    6   10 1
  13    7   35 1
  14    7   36 1
  15    7   37 1
  16    8    9 am
  17    8   11 2
  18    9   10 1
  19    9   12 1
  20   10   38 1
  21   10   39 1
  22   12   13 1
  23   12   17 1
  24   12   40 1
  25   13   14 1
  26   13   18 1
  27   13   41 1
  28   14   15 1
  29   14   42 1
  30   14   43 1
  31   15   16 1
  32   15   44 1
  33   15   45 1
  34   16   17 1
  35   16   46 1
  36   16   47 1
  37   17   48 1
  38   17   49 1
  39   18   50 1
  40   19   20 1
  41   19   51 1
  42   19   52 1
  43   20   21 ar
  44   20   25 ar
  45   21   22 ar
  46   21   53 1
  47   22   23 ar
  48   22   54 1
  49   23   24 ar
  50   23   26 1
  51   24   25 ar
  52   25   55 1
  53   26   27 ar
  54   26   31 ar
  55   27   28 ar
  56   27   56 1
  57   28   29 ar
  58   28   57 1
  59   29   30 ar
  60   30   31 ar
  61   30   32 1
  62   31   58 1
  63   32   59 1
  64   32   60 1
  65   32   61 1

#	End of record

