#	Name: ASD07300476
#	Creating user name:	WinNT
#	Creation time:	15. 06. 2019 21:09

#	Modifying user name:	WinNT
#	Modification time:	15. 06. 2019 21:09

#	Program:	/corina/corina34_cracker 3.40 0067  02.08.2006

@<TRIPOS>MOLECULE
ASD07300476
  26   28    0    0    0
SMALL
NO_CHARGES


@<TRIPOS>ATOM
   1 N1            -0.0169     1.3942     0.0097 N.pl3   
   2 C2             0.0021    -0.0041     0.0020 C.ar    
   3 C3             1.2142    -0.6823    -0.0132 C.ar    
   4 C4             1.2327    -2.0625    -0.0203 C.ar    
   5 C5             0.0396    -2.7730    -0.0127 C.ar    
   6 C6            -1.1723    -2.0953     0.0020 C.ar    
   7 C7            -1.1912    -0.7150     0.0154 C.ar    
   8 C8            -0.8395    -4.9851     0.6247 C.ar    
   9 C9            -0.4506    -6.3124     0.3524 C.ar    
  10 C10           -1.1990    -7.3678     0.8858 C.ar    
  11 C11           -2.2893    -7.0619     1.6580 C.ar    
  12 C12           -2.6172    -5.7332     1.8871 C.ar    
  13 N13           -1.9054    -4.7504     1.3793 N.ar    
  14 N14            0.9969    -4.9690    -0.6874 N.2     
  15 N15            0.0587    -4.1751    -0.0204 N.pl3   
  16 C16            0.7374    -6.2306    -0.4901 C.2     
  17 H17            0.8165     1.8905     0.0044 H       
  18 H18           -0.8634     1.8677     0.0163 H       
  19 H19            2.1422    -0.1297    -0.0198 H       
  20 H20            2.1752    -2.5898    -0.0321 H       
  21 H21           -2.1001    -2.6480     0.0072 H       
  22 H22           -2.1337    -0.1880     0.0317 H       
  23 H23           -0.9253    -8.3948     0.6940 H       
  24 H24           -2.8902    -7.8509     2.0857 H       
  25 H25           -3.4780    -5.5003     2.4963 H       
  26 H26            1.2976    -7.0655    -0.8844 H       
@<TRIPOS>BOND
   1    1    2 1
   2    1   17 1
   3    1   18 1
   4    2    3 ar
   5    2    7 ar
   6    3    4 ar
   7    3   19 1
   8    4    5 ar
   9    4   20 1
  10    5    6 ar
  11    5   15 1
  12    6    7 ar
  13    6   21 1
  14    7   22 1
  15    8    9 ar
  16    8   13 ar
  17    8   15 1
  18    9   10 ar
  19    9   16 1
  20   10   11 ar
  21   10   23 1
  22   11   12 ar
  23   11   24 1
  24   12   13 ar
  25   12   25 1
  26   14   15 1
  27   14   16 2
  28   16   26 1

#	End of record

