#	Name: ASD01884254
#	Creating user name:	WinNT
#	Creation time:	15. 06. 2019 19:47

#	Modifying user name:	WinNT
#	Modification time:	15. 06. 2019 19:47

#	Program:	/corina/corina34_cracker 3.40 0067  02.08.2006

@<TRIPOS>MOLECULE
ASD01884254
  45   48    0    0    0
SMALL
NO_CHARGES


@<TRIPOS>ATOM
   1 C1            -0.0169     1.3920     0.0097 C.ar    
   2 C2             0.0021    -0.0041     0.0020 C.ar    
   3 C3            -1.1683    -0.7205     0.0094 C.ar    
   4 C4            -2.4132    -0.0698     0.0252 C.ar    
   5 C5            -2.4165     1.3273     0.0332 C.ar    
   6 C6            -1.2432     2.0548     0.0308 C.ar    
   7 N7            -3.6703    -0.6444     0.0347 N.am    
   8 C8            -4.7412     0.1548     0.0501 C.2     
   9 S9            -4.1177     1.8129     0.0532 S.3     
  10 C10            1.2502     2.1592     0.0017 C.ar    
  11 O11           -5.9092    -0.1874     0.0596 O.2     
  12 C12           -3.8257    -2.1011     0.0275 C.3     
  13 C13           -4.5841    -2.5393     1.2819 C.3     
  14 C14           -4.7546    -4.0686     1.2875 C.3     
  15 C15           -4.6098    -2.5242    -1.2164 C.3     
  16 C16            2.2694     1.8523     0.9219 C.ar    
  17 C17            3.4579     2.5841     0.9024 C.ar    
  18 C18            3.6264     3.5999    -0.0149 C.ar    
  19 C19            2.6220     3.9011    -0.9204 C.ar    
  20 C20            1.4423     3.1849    -0.9202 C.ar    
  21 C21            2.0885     0.7966     1.8723 C.1     
  22 N22            1.9449    -0.0409     2.6263 N.1     
  23 C23           -3.7706    -2.1821     2.5430 C.3     
  24 C24           -4.0235    -3.3679     3.5068 C.3     
  25 C25           -4.0388    -4.5872     2.5518 C.3     
  26 H26            0.9477    -0.5256    -0.0102 H       
  27 H27           -1.1319    -1.7999     0.0025 H       
  28 H28           -1.2753     3.1343     0.0372 H       
  29 H29           -2.8424    -2.5713     0.0145 H       
  30 H30           -5.5598    -2.0547     1.3164 H       
  31 H31           -5.8131    -4.3261     1.3255 H       
  32 H32           -4.2971    -4.4986     0.3965 H       
  33 H33           -4.0695    -2.2121    -2.1101 H       
  34 H34           -4.7254    -3.6081    -1.2217 H       
  35 H35           -5.5930    -2.0540    -1.2034 H       
  36 H36            4.2450     2.3550     1.6055 H       
  37 H37            4.5470     4.1645    -0.0273 H       
  38 H38            2.7649     4.6990    -1.6341 H       
  39 H39            0.6644     3.4258    -1.6296 H       
  40 H40           -2.7101    -2.1046     2.3036 H       
  41 H41           -4.1330    -1.2515     2.9798 H       
  42 H42           -3.2146    -3.4555     4.2322 H       
  43 H43           -4.9845    -3.2589     4.0095 H       
  44 H44           -4.5970    -5.4119     2.9950 H       
  45 H45           -3.0216    -4.8982     2.3138 H       
@<TRIPOS>BOND
   1    1    2 ar
   2    1   10 1
   3    1    6 ar
   4    2    3 ar
   5    2   26 1
   6    3    4 ar
   7    3   27 1
   8    4    5 ar
   9    4    7 1
  10    5    6 ar
  11    5    9 1
  12    6   28 1
  13    7    8 am
  14    7   12 1
  15    8    9 1
  16    8   11 2
  17   10   16 ar
  18   10   20 ar
  19   12   13 1
  20   12   15 1
  21   12   29 1
  22   13   14 1
  23   13   23 1
  24   13   30 1
  25   14   25 1
  26   14   31 1
  27   14   32 1
  28   15   33 1
  29   15   34 1
  30   15   35 1
  31   16   17 ar
  32   16   21 1
  33   17   18 ar
  34   17   36 1
  35   18   19 ar
  36   18   37 1
  37   19   20 ar
  38   19   38 1
  39   20   39 1
  40   21   22 3
  41   23   24 1
  42   23   40 1
  43   23   41 1
  44   24   25 1
  45   24   42 1
  46   24   43 1
  47   25   44 1
  48   25   45 1

#	End of record

