#	Name: ASD01882688
#	Creating user name:	WinNT
#	Creation time:	15. 06. 2019 19:45

#	Modifying user name:	WinNT
#	Modification time:	15. 06. 2019 19:45

#	Program:	/corina/corina34_cracker 3.40 0067  02.08.2006

@<TRIPOS>MOLECULE
ASD01882688
  30   32    0    0    0
SMALL
NO_CHARGES


@<TRIPOS>ATOM
   1 C1            -0.0159     1.3220     0.0093 C.2     
   2 N2             0.0021    -0.0041     0.0020 N.2     
   3 C3             1.1523    -0.6857    -0.0126 C.2     
   4 C4             2.3835     0.0173    -0.0206 C.2     
   5 C5             2.3523     1.3664    -0.0131 C.2     
   6 N6             1.1484     2.0132     0.0019 N.pl3   
   7 O7            -1.0993     2.1290     0.0184 O.3     
   8 C8             0.8540     3.4562     0.0125 C.3     
   9 C9            -0.6831     3.5211     0.0242 C.3     
  10 O10            1.1423    -1.9071    -0.0187 O.2     
  11 C11           -1.1944     4.2379    -1.2270 C.3     
  12 O12           -2.6209     4.3119    -1.1842 O.3     
  13 C13           -3.2387     4.9234    -2.2290 C.ar    
  14 C14           -4.6216     5.0304    -2.2522 C.ar    
  15 C15           -5.2476     5.6523    -3.3151 C.ar    
  16 C16           -4.4963     6.1679    -4.3561 C.ar    
  17 C17           -3.1171     6.0623    -4.3349 C.ar    
  18 C18           -2.4868     5.4466    -3.2709 C.ar    
  19 Br19          -5.3560     7.0176    -5.8104 Br      
  20 H20            3.3237    -0.5140    -0.0321 H       
  21 H21            3.2727     1.9314    -0.0185 H       
  22 H22            1.2651     3.9237     0.9072 H       
  23 H23            1.2480     3.9334    -0.8848 H       
  24 H24           -1.0396     4.0220     0.9243 H       
  25 H25           -0.7793     5.2451    -1.2639 H       
  26 H26           -0.8857     3.6850    -2.1142 H       
  27 H27           -5.2085     4.6275    -1.4401 H       
  28 H28           -6.3242     5.7358    -3.3335 H       
  29 H29           -2.5324     6.4654    -5.1486 H       
  30 H30           -1.4098     5.3682    -3.2526 H       
@<TRIPOS>BOND
   1    1    2 2
   2    1    6 1
   3    1    7 1
   4    2    3 1
   5    3    4 1
   6    3   10 2
   7    4    5 2
   8    4   20 1
   9    5    6 1
  10    5   21 1
  11    6    8 1
  12    7    9 1
  13    8    9 1
  14    8   22 1
  15    8   23 1
  16    9   11 1
  17    9   24 1
  18   11   12 1
  19   11   25 1
  20   11   26 1
  21   12   13 1
  22   13   14 ar
  23   13   18 ar
  24   14   15 ar
  25   14   27 1
  26   15   16 ar
  27   15   28 1
  28   16   17 ar
  29   16   19 1
  30   17   18 ar
  31   17   29 1
  32   18   30 1

#	End of record

