#	Name: ASD03912014
#	Creating user name:	WinNT
#	Creation time:	15. 06. 2019 20:47

#	Modifying user name:	WinNT
#	Modification time:	15. 06. 2019 20:47

#	Program:	/corina/corina34_cracker 3.40 0067  02.08.2006

@<TRIPOS>MOLECULE
ASD03912014
  42   43    0    0    0
SMALL
NO_CHARGES


@<TRIPOS>ATOM
   1 C1            -1.9454    -0.5986    -1.2158 C.ar    
   2 C2            -0.8268    -0.2676    -0.4715 C.ar    
   3 C3            -0.8544     0.8265     0.3739 C.ar    
   4 C4            -1.9988     1.5925     0.4775 C.ar    
   5 C5            -3.1234     1.2636    -0.2684 C.ar    
   6 C6            -3.0920     0.1680    -1.1204 C.ar    
   7 C7             0.3657     1.1829     1.1834 C.3     
   8 N8            -4.2843     2.0380    -0.1649 N.am    
   9 C9            -4.1919     3.3749    -0.0207 C.2     
  10 C10           -5.4392     4.2207    -0.0210 C.3     
  11 O11           -3.1050     3.8971     0.1092 O.2     
  12 C12           -5.0636     5.6695     0.1545 C.ar    
  13 C13           -4.8083     6.4555    -0.9540 C.ar    
  14 C14           -4.4638     7.7839    -0.7958 C.ar    
  15 C15           -4.3741     8.3292     0.4767 C.ar    
  16 C16           -4.6308     7.5385     1.5873 C.ar    
  17 C17           -4.9804     6.2121     1.4235 C.ar    
  18 O18           -4.0350     9.6357     0.6350 O.3     
  19 C19           -3.6659    10.3573    -0.5419 C.3     
  20 C20           -4.9134    10.9836    -1.1684 C.3     
  21 Cl21          -1.9067    -1.9732    -2.2754 Cl      
  22 C22           -2.6869    11.4438    -0.1786 C.2     
  23 O23           -2.3407    11.5856     0.9703 O.2     
  24 O24           -2.1994    12.2540    -1.1313 O.3     
  25 H25            0.0694    -0.8650    -0.5507 H       
  26 H26           -2.0193     2.4465     1.1382 H       
  27 H27           -3.9648    -0.0899    -1.7019 H       
  28 H28            0.9924     1.8686     0.6133 H       
  29 H29            0.0577     1.6603     2.1137 H       
  30 H30            0.9293     0.2776     1.4089 H       
  31 H31           -5.1554     1.6127    -0.1968 H       
  32 H32           -5.9641     4.0936    -0.9678 H       
  33 H33           -6.0879     3.9117     0.7985 H       
  34 H34           -4.8778     6.0304    -1.9444 H       
  35 H35           -4.2641     8.3973    -1.6620 H       
  36 H36           -4.5617     7.9607     2.5790 H       
  37 H37           -5.1803     5.5961     2.2878 H       
  38 H38           -3.2038     9.6758    -1.2561 H       
  39 H39           -4.6319    11.5340    -2.0661 H       
  40 H40           -5.6215    10.1977    -1.4312 H       
  41 H41           -5.3755    11.6651    -0.4543 H       
  42 H42           -1.5743    12.9361    -0.8500 H       
@<TRIPOS>BOND
   1    1    2 ar
   2    1   21 1
   3    1    6 ar
   4    2    3 ar
   5    2   25 1
   6    3    4 ar
   7    3    7 1
   8    4    5 ar
   9    4   26 1
  10    5    6 ar
  11    5    8 1
  12    6   27 1
  13    7   28 1
  14    7   29 1
  15    7   30 1
  16    8    9 am
  17    8   31 1
  18    9   10 1
  19    9   11 2
  20   10   12 1
  21   10   32 1
  22   10   33 1
  23   12   13 ar
  24   12   17 ar
  25   13   14 ar
  26   13   34 1
  27   14   15 ar
  28   14   35 1
  29   15   16 ar
  30   15   18 1
  31   16   17 ar
  32   16   36 1
  33   17   37 1
  34   18   19 1
  35   19   20 1
  36   19   22 1
  37   19   38 1
  38   20   39 1
  39   20   40 1
  40   20   41 1
  41   22   23 2
  42   22   24 1
  43   24   42 1

#	End of record

