#	Name: ASD06710058
#	Creating user name:	WinNT
#	Creation time:	15. 06. 2019 21:08

#	Modifying user name:	WinNT
#	Modification time:	15. 06. 2019 21:08

#	Program:	/corina/corina34_cracker 3.40 0067  02.08.2006

@<TRIPOS>MOLECULE
ASD06710058
  45   45    0    0    0
SMALL
NO_CHARGES


@<TRIPOS>ATOM
   1 C1             1.2237    -0.6137     0.5285 C.2     
   2 C2            -0.0694    -0.0490    -0.0007 C.3     
   3 C3            -0.0349     1.4779     0.0919 C.3     
   4 O4             2.1248    -0.8758    -0.2326 O.2     
   5 O5             1.3765    -0.8202     1.8459 O.3     
   6 C6            -0.2487    -0.4674    -1.4614 C.3     
   7 N7            -1.1878    -0.5613     0.7948 N.pl3   
   8 C8            -1.4188    -1.9305     0.8686 C.ar    
   9 C9            -2.5641    -2.4078     1.4978 C.ar    
  10 C10           -2.7935    -3.7663     1.5712 C.ar    
  11 C11           -1.8699    -4.6582     1.0106 C.ar    
  12 C12           -0.7225    -4.1663     0.3809 C.ar    
  13 C13           -0.5059    -2.8199     0.3076 C.ar    
  14 F14           -3.9041    -4.2346     2.1815 F       
  15 C15           -2.1068    -6.1109     1.0849 C.2     
  16 N16           -1.2171    -6.9672     0.5450 N.am    
  17 O17           -3.1051    -6.5369     1.6333 O.2     
  18 C18           -1.4526    -8.4113     0.6188 C.3     
  19 C19           -2.7671    -8.7504    -0.0869 C.3     
  20 C20           -0.3011    -9.1514    -0.0647 C.3     
  21 C21           -1.5355    -8.8402     2.0851 C.3     
  22 C22            2.6483    -1.3665     2.2844 C.3     
  23 H23            0.8464     1.8535    -0.4280 H       
  24 H24           -0.9322     1.8902    -0.3695 H       
  25 H25            0.0057     1.7775     1.1391 H       
  26 H26           -0.1742    -1.5520    -1.5405 H       
  27 H27           -1.2278    -0.1437    -1.8145 H       
  28 H28            0.5282    -0.0046    -2.0700 H       
  29 H29           -1.7672     0.0547     1.2700 H       
  30 H30           -3.2726    -1.7158     1.9285 H       
  31 H31           -0.0088    -4.8518    -0.0517 H       
  32 H32            0.3792    -2.4436    -0.1837 H       
  33 H33           -0.4208    -6.6274     0.1075 H       
  34 H34           -2.7080    -8.4448    -1.1315 H       
  35 H35           -2.9423    -9.8248    -0.0319 H       
  36 H36           -3.5874    -8.2231     0.4001 H       
  37 H37            0.6354    -8.9098     0.4381 H       
  38 H38           -0.4763   -10.2258    -0.0097 H       
  39 H39           -0.2420    -8.8459    -1.1093 H       
  40 H40           -2.3559    -8.3129     2.5721 H       
  41 H41           -1.7108    -9.9146     2.1401 H       
  42 H42           -0.5991    -8.5986     2.5879 H       
  43 H43            2.8078    -2.3374     1.8153 H       
  44 H44            3.4527    -0.6886     1.9990 H       
  45 H45            2.6392    -1.4837     3.3680 H       
@<TRIPOS>BOND
   1    1    2 1
   2    1    4 2
   3    1    5 1
   4    2    3 1
   5    2    6 1
   6    2    7 1
   7    3   23 1
   8    3   24 1
   9    3   25 1
  10    5   22 1
  11    6   26 1
  12    6   27 1
  13    6   28 1
  14    7    8 1
  15    7   29 1
  16    8    9 ar
  17    8   13 ar
  18    9   10 ar
  19    9   30 1
  20   10   11 ar
  21   10   14 1
  22   11   12 ar
  23   11   15 1
  24   12   13 ar
  25   12   31 1
  26   13   32 1
  27   15   16 am
  28   15   17 2
  29   16   18 1
  30   16   33 1
  31   18   19 1
  32   18   21 1
  33   18   20 1
  34   19   34 1
  35   19   35 1
  36   19   36 1
  37   20   37 1
  38   20   38 1
  39   20   39 1
  40   21   40 1
  41   21   41 1
  42   21   42 1
  43   22   43 1
  44   22   44 1
  45   22   45 1

#	End of record

