#	Name: ASD01870144
#	Creating user name:	WinNT
#	Creation time:	15. 06. 2019 19:38

#	Modifying user name:	WinNT
#	Modification time:	15. 06. 2019 19:38

#	Program:	/corina/corina34_cracker 3.40 0067  02.08.2006

@<TRIPOS>MOLECULE
ASD01870144
  39   41    0    0    0
SMALL
NO_CHARGES


@<TRIPOS>ATOM
   1 C1             1.6482     1.5338     1.3888 C.3     
   2 C2             1.6906     0.0274     1.3812 C.2     
   3 N3             0.6044    -0.6754     1.0035 N.am    
   4 O4             2.7023    -0.5525     1.7148 O.2     
   5 C5             0.6733    -2.0703     0.9027 C.ar    
   6 C6             1.4498    -2.7936     1.7984 C.ar    
   7 C7            -0.0394    -2.7306    -0.0895 C.ar    
   8 C8             0.0284    -4.1070    -0.1892 C.ar    
   9 C9             0.8096    -4.8302     0.7032 C.ar    
  10 C10            1.5179    -4.1699     1.6991 C.ar    
  11 Cl11           2.4942    -5.0735     2.8145 Cl      
  12 N12            0.8783    -6.2288     0.6023 N.am    
  13 C13            1.7954    -6.8622    -0.1458 C.2     
  14 C14            0.0364    -7.0491     1.2500 C.2     
  15 C15            0.5223    -8.4765     1.0630 C.3     
  16 C16            1.4555    -8.3386    -0.1706 C.3     
  17 O17           -0.9437    -6.7093     1.8776 O.2     
  18 O18            2.7356    -6.3414    -0.7067 O.2     
  19 Cl19          -0.8630    -4.9325    -1.4292 Cl      
  20 C20            0.5508     2.0083     2.3435 C.3     
  21 C21            2.9998     2.0797     1.8539 C.3     
  22 C22            2.4578    -9.2271     0.5768 C.3     
  23 C23            1.7889    -8.7810     1.8816 C.3     
  24 H24            1.4365     1.8965     0.3830 H       
  25 H25           -0.2251    -0.2149     0.8016 H       
  26 H26            2.0007    -2.2802     2.5725 H       
  27 H27           -0.6470    -2.1683    -0.7831 H       
  28 H28           -0.2528    -9.2422     1.0325 H       
  29 H29            1.0805    -8.7153    -1.1222 H       
  30 H30            0.5201     3.0978     2.3490 H       
  31 H31           -0.4121     1.6194     2.0122 H       
  32 H32            0.7625     1.6456     3.3494 H       
  33 H33            3.7816     1.7417     1.1737 H       
  34 H34            2.9691     3.1693     1.8594 H       
  35 H35            3.2115     1.7171     2.8597 H       
  36 H36            2.3377   -10.2899     0.3665 H       
  37 H37            3.4906    -8.8918     0.4824 H       
  38 H38            2.2449    -7.8946     2.3226 H       
  39 H39            1.6580    -9.5904     2.5998 H       
@<TRIPOS>BOND
   1    1    2 1
   2    1   20 1
   3    1   21 1
   4    1   24 1
   5    2    3 am
   6    2    4 2
   7    3    5 1
   8    3   25 1
   9    5    6 ar
  10    5    7 ar
  11    6   10 ar
  12    6   26 1
  13    7    8 ar
  14    7   27 1
  15    8    9 ar
  16    8   19 1
  17    9   10 ar
  18    9   12 1
  19   10   11 1
  20   12   13 am
  21   12   14 am
  22   13   18 2
  23   13   16 1
  24   14   15 1
  25   14   17 2
  26   15   16 1
  27   15   23 1
  28   15   28 1
  29   16   22 1
  30   16   29 1
  31   20   30 1
  32   20   31 1
  33   20   32 1
  34   21   33 1
  35   21   34 1
  36   21   35 1
  37   22   23 1
  38   22   36 1
  39   22   37 1
  40   23   38 1
  41   23   39 1

#	End of record

