#	Name: ASD03092726
#	Creating user name:	WinNT
#	Creation time:	15. 06. 2019 20:33

#	Modifying user name:	WinNT
#	Modification time:	15. 06. 2019 20:33

#	Program:	/corina/corina34_cracker 3.40 0067  02.08.2006

@<TRIPOS>MOLECULE
ASD03092726
  48   50    0    0    0
SMALL
NO_CHARGES


@<TRIPOS>ATOM
   1 C1             0.0248     1.1858     0.0030 C.2     
   2 O2            -0.6775     1.1954     0.9958 O.2     
   3 C3             2.5227     1.2868     0.1078 C.ar    
   4 C4             1.2862     1.9475    -0.0146 C.ar    
   5 C5             1.2746     3.3389    -0.1537 C.ar    
   6 C6             2.4962     4.0114    -0.1648 C.ar    
   7 C7             3.6779     3.2813    -0.0379 C.ar    
   8 N8             3.6567     1.9706     0.0916 N.ar    
   9 C9             2.5385     5.4874    -0.3103 C.ar    
  10 C10            3.7628     6.1532    -0.3205 C.ar    
  11 C11            3.7990     7.5253    -0.4559 C.ar    
  12 C12            2.6175     8.2431    -0.5819 C.ar    
  13 C13            1.3964     7.5827    -0.5716 C.ar    
  14 C14            1.3542     6.2102    -0.4427 C.ar    
  15 O15            2.6562     9.5949    -0.7152 O.3     
  16 C16            1.4033    10.2706    -0.8402 C.3     
  17 F17            0.6265    10.0272     0.2976 F       
  18 F18            1.6259    11.6459    -0.9674 F       
  19 F19            0.7309     9.8003    -1.9733 F       
  20 N20            2.5537    -0.0872     0.2518 N.pl3   
  21 C21            3.8371    -0.7935     0.2658 C.3     
  22 C22            3.5915    -2.2940     0.4363 C.3     
  23 C23            4.9319    -3.0317     0.4509 C.3     
  24 C24           -0.3834     0.4059    -1.1828 C.ar    
  25 C25           -1.5154    -0.4115    -1.1288 C.ar    
  26 C26           -1.8917    -1.1370    -2.2384 C.ar    
  27 C27           -1.1489    -1.0574    -3.4068 C.ar    
  28 C28           -0.0242    -0.2482    -3.4659 C.ar    
  29 C29            0.3576     0.4870    -2.3646 C.ar    
  30 F30           -1.5221    -1.7713    -4.4914 F       
  31 H31            0.3441     3.8785    -0.2504 H       
  32 H32            4.6257     3.7990    -0.0465 H       
  33 H33            4.6823     5.5953    -0.2222 H       
  34 H34            4.7474     8.0418    -0.4636 H       
  35 H35            0.4788     8.1439    -0.6694 H       
  36 H36            0.4042     5.6965    -0.4396 H       
  37 H37            1.7256    -0.5840     0.3437 H       
  38 H38            4.3600    -0.6154    -0.6739 H       
  39 H39            4.4439    -0.4282     1.0942 H       
  40 H40            3.0686    -2.4721     1.3760 H       
  41 H41            2.9847    -2.6594    -0.3921 H       
  42 H42            4.7570    -4.1007     0.5724 H       
  43 H43            5.4548    -2.8536    -0.4887 H       
  44 H44            5.5387    -2.6664     1.2794 H       
  45 H45           -2.0942    -0.4747    -0.2192 H       
  46 H46           -2.7664    -1.7691    -2.1978 H       
  47 H47            0.5508    -0.1903    -4.3783 H       
  48 H48            1.2308     1.1206    -2.4132 H       
@<TRIPOS>BOND
   1    1    2 2
   2    1    4 1
   3    1   24 1
   4    3    4 ar
   5    3    8 ar
   6    3   20 1
   7    4    5 ar
   8    5    6 ar
   9    5   31 1
  10    6    7 ar
  11    6    9 1
  12    7    8 ar
  13    7   32 1
  14    9   10 ar
  15    9   14 ar
  16   10   11 ar
  17   10   33 1
  18   11   12 ar
  19   11   34 1
  20   12   13 ar
  21   12   15 1
  22   13   14 ar
  23   13   35 1
  24   14   36 1
  25   15   16 1
  26   16   17 1
  27   16   18 1
  28   16   19 1
  29   20   21 1
  30   20   37 1
  31   21   22 1
  32   21   38 1
  33   21   39 1
  34   22   23 1
  35   22   40 1
  36   22   41 1
  37   23   42 1
  38   23   43 1
  39   23   44 1
  40   24   25 ar
  41   24   29 ar
  42   25   26 ar
  43   25   45 1
  44   26   27 ar
  45   26   46 1
  46   27   28 ar
  47   27   30 1
  48   28   29 ar
  49   28   47 1
  50   29   48 1

#	End of record

