#	Name: ASD01911089
#	Creating user name:	WinNT
#	Creation time:	15. 06. 2019 19:57

#	Modifying user name:	WinNT
#	Modification time:	15. 06. 2019 19:57

#	Program:	/corina/corina34_cracker 3.40 0067  02.08.2006

@<TRIPOS>MOLECULE
ASD01911089
  45   48    0    0    0
SMALL
NO_CHARGES


@<TRIPOS>ATOM
   1 O1            -0.5244     1.5818     0.4650 O.3     
   2 C2            -0.4269     0.2449     0.2597 C.2     
   3 N3            -1.4037    -0.6665     0.4474 N.2     
   4 C4            -0.8731    -1.8221     0.1298 C.2     
   5 O5             0.3904    -1.5856    -0.2360 O.3     
   6 N6             0.6273    -0.3983    -0.1613 N.2     
   7 C7            -1.5581    -3.1638     0.1696 C.3     
   8 C8            -1.5560    -3.7802    -1.2312 C.3     
   9 C9            -2.2803    -5.1279    -1.1985 C.3     
  10 C10           -1.5406    -6.0778    -0.2512 C.3     
  11 N11           -1.4108    -5.4304     1.0614 N.am    
  12 C12           -0.8102    -4.0915     1.1324 C.3     
  13 C13           -1.8347    -6.0530     2.1790 C.2     
  14 O14           -1.6535    -5.5404     3.2663 O.2     
  15 C15           -2.5196    -7.3584     2.0828 C.ar    
  16 C16           -1.9948    -8.3670     1.2719 C.ar    
  17 C17           -2.6379    -9.5831     1.1857 C.ar    
  18 C18           -3.8038    -9.8059     1.9023 C.ar    
  19 C19           -4.3295    -8.8078     2.7086 C.ar    
  20 C20           -3.6910    -7.5902     2.8069 C.ar    
  21 F21           -4.4302   -10.9997     1.8143 F       
  22 C22            0.6048     2.3296     0.3474 C.ar    
  23 C23            1.8339     1.7091     0.1783 C.ar    
  24 C24            2.9805     2.4702     0.0585 C.ar    
  25 C25            2.9034     3.8518     0.1075 C.ar    
  26 C26            1.6773     4.4725     0.2762 C.ar    
  27 C27            0.5283     3.7140     0.3906 C.ar    
  28 F28            4.0256     4.5949    -0.0090 F       
  29 H29           -2.5859    -3.0376     0.5100 H       
  30 H30           -2.0663    -3.1104    -1.9234 H       
  31 H31           -0.5278    -3.9285    -1.5611 H       
  32 H32           -3.3013    -4.9838    -0.8449 H       
  33 H33           -2.2989    -5.5554    -2.2010 H       
  34 H34           -2.1059    -7.0040    -0.1475 H       
  35 H35           -0.5501    -6.2947    -0.6512 H       
  36 H36            0.2399    -4.1463     0.8452 H       
  37 H37           -0.8935    -3.7070     2.1489 H       
  38 H38           -1.0870    -8.1943     0.7130 H       
  39 H39           -2.2331   -10.3636     0.5586 H       
  40 H40           -5.2381    -8.9865     3.2644 H       
  41 H41           -4.1011    -6.8135     3.4355 H       
  42 H42            1.8945     0.6314     0.1408 H       
  43 H43            3.9376     1.9874    -0.0732 H       
  44 H44            1.6186     5.5502     0.3143 H       
  45 H45           -0.4279     4.1984     0.5222 H       
@<TRIPOS>BOND
   1    1    2 1
   2    1   22 1
   3    2    3 1
   4    2    6 2
   5    3    4 2
   6    4    5 1
   7    4    7 1
   8    5    6 1
   9    7    8 1
  10    7   12 1
  11    7   29 1
  12    8    9 1
  13    8   30 1
  14    8   31 1
  15    9   10 1
  16    9   32 1
  17    9   33 1
  18   10   11 1
  19   10   34 1
  20   10   35 1
  21   11   12 1
  22   11   13 am
  23   12   36 1
  24   12   37 1
  25   13   14 2
  26   13   15 1
  27   15   16 ar
  28   15   20 ar
  29   16   17 ar
  30   16   38 1
  31   17   18 ar
  32   17   39 1
  33   18   19 ar
  34   18   21 1
  35   19   20 ar
  36   19   40 1
  37   20   41 1
  38   22   23 ar
  39   22   27 ar
  40   23   24 ar
  41   23   42 1
  42   24   25 ar
  43   24   43 1
  44   25   26 ar
  45   25   28 1
  46   26   27 ar
  47   26   44 1
  48   27   45 1

#	End of record

