#	Name: ASD00170034
#	Creating user name:	WinNT
#	Creation time:	15. 06. 2019 18:31

#	Modifying user name:	WinNT
#	Modification time:	15. 06. 2019 18:31

#	Program:	/corina/corina34_cracker 3.40 0067  02.08.2006

@<TRIPOS>MOLECULE
ASD00170034
  36   39    0    0    0
SMALL
NO_CHARGES


@<TRIPOS>ATOM
   1 C1            -0.0177     1.4114    -0.0054 C.ar    
   2 C2             0.0014    -0.0045    -0.0144 C.ar    
   3 C3            -1.2133    -0.7121     0.0046 C.ar    
   4 C4            -2.4025    -0.0489     0.0315 C.ar    
   5 C5            -2.4673     1.3377     0.0413 C.ar    
   6 C6            -1.3065     2.0996     0.0180 C.ar    
   7 C7             1.1898     2.1198    -0.0248 C.ar    
   8 C8             2.3702     1.4385    -0.0520 C.ar    
   9 C9             2.3923     0.0459    -0.0609 C.ar    
  10 C10            1.2367    -0.6740    -0.0427 C.ar    
  11 C11           -1.3730     3.5733     0.0283 C.2     
  12 C12           -2.6688     4.2481    -0.0607 C.2     
  13 O13           -0.3494     4.2286     0.1108 O.2     
  14 C14           -3.5189     4.5135     1.0979 C.2     
  15 C15           -4.6455     5.1368     0.7692 C.2     
  16 S16           -4.7179     5.4270    -0.9686 S.3     
  17 C17           -3.2041     4.6993    -1.2365 C.2     
  18 N18           -2.6011     4.5747    -2.4720 N.pl3   
  19 C19           -3.4702     4.2692     2.6036 C.3     
  20 C20           -4.5233     5.2274     3.1952 C.3     
  21 C21           -5.4950     5.3906     2.0091 C.3     
  22 I22           -1.1940    -2.8069    -0.0093 I       
  23 H23           -3.3206    -0.6175     0.0453 H       
  24 H24           -3.4292     1.8283     0.0624 H       
  25 H25            1.1861     3.1998    -0.0185 H       
  26 H26            3.3010     1.9860    -0.0673 H       
  27 H27            3.3405    -0.4708    -0.0825 H       
  28 H28            1.2692    -1.7535    -0.0498 H       
  29 H29           -3.0750     4.8486    -3.2728 H       
  30 H30           -1.7035     4.2132    -2.5394 H       
  31 H31           -3.7301     3.2348     2.8285 H       
  32 H32           -2.4805     4.5058     2.9943 H       
  33 H33           -5.0246     4.7764     4.0516 H       
  34 H34           -4.0737     6.1827     3.4662 H       
  35 H35           -5.9025     6.4014     1.9891 H       
  36 H36           -6.2992     4.6579     2.0741 H       
@<TRIPOS>BOND
   1    1    2 ar
   2    1    7 ar
   3    1    6 ar
   4    2    3 ar
   5    2   10 ar
   6    3    4 ar
   7    3   22 1
   8    4    5 ar
   9    4   23 1
  10    5    6 ar
  11    5   24 1
  12    6   11 1
  13    7    8 ar
  14    7   25 1
  15    8    9 ar
  16    8   26 1
  17    9   10 ar
  18    9   27 1
  19   10   28 1
  20   11   12 1
  21   11   13 2
  22   12   14 1
  23   12   17 2
  24   14   15 2
  25   14   19 1
  26   15   16 1
  27   15   21 1
  28   16   17 1
  29   17   18 1
  30   18   29 1
  31   18   30 1
  32   19   20 1
  33   19   31 1
  34   19   32 1
  35   20   21 1
  36   20   33 1
  37   20   34 1
  38   21   35 1
  39   21   36 1

#	End of record

