#	Name: ASD01208028
#	Creating user name:	WinNT
#	Creation time:	15. 06. 2019 19:09

#	Modifying user name:	WinNT
#	Modification time:	15. 06. 2019 19:09

#	Program:	/corina/corina34_cracker 3.40 0067  02.08.2006

@<TRIPOS>MOLECULE
ASD01208028
  69   72    0    0    0
SMALL
NO_CHARGES


@<TRIPOS>ATOM
   1 C1             0.2795     0.7788    -0.5026 C.ar    
   2 C2             0.0473    -0.5584    -0.2158 C.ar    
   3 C3            -1.2398    -1.0001     0.0577 C.ar    
   4 C4            -2.2979    -0.1066     0.0452 C.ar    
   5 C5            -2.0684     1.2395    -0.2425 C.ar    
   6 C6            -0.7722     1.6803    -0.5112 C.ar    
   7 C7            -3.1947     2.1968    -0.2569 C.2     
   8 C8            -3.1043     3.5440    -0.5247 C.2     
   9 N9            -4.5047     1.8950    -0.0126 N.pl3   
  10 C10           -5.2470     3.0474    -0.1193 C.2     
  11 C11           -4.3904     4.0792    -0.4368 C.2     
  12 O12            1.5416     1.2061    -0.7701 O.3     
  13 C13            1.6937     2.5692    -1.1712 C.3     
  14 C14            2.9719     2.7177    -1.9989 C.3     
  15 O15            4.1068     2.4365    -1.1772 O.3     
  16 C16            1.7837     3.4591     0.0701 C.3     
  17 O17           -1.4621    -2.3111     0.3376 O.3     
  18 C18           -2.1971    -3.0364    -0.5457 C.ar    
  19 C19           -2.5986    -2.4690    -1.7466 C.ar    
  20 C20           -2.5427    -4.3475    -0.2509 C.ar    
  21 C21           -3.2896    -5.0827    -1.1507 C.ar    
  22 C22           -3.6928    -4.5132    -2.3444 C.ar    
  23 C23           -3.3454    -3.2085    -2.6430 C.ar    
  24 S24           -4.6450    -5.4539    -3.4903 S.o2    
  25 C25           -6.3669    -5.1344    -3.0179 C.3     
  26 O26           -4.3566    -4.8660    -4.7515 O.2     
  27 O27           -4.2940    -6.8028    -3.2134 O.2     
  28 C28           -6.7004     3.1589     0.0692 C.2     
  29 N29           -7.3489     4.2810    -0.0458 N.2     
  30 C30           -8.7770     4.0233     0.2230 C.3     
  31 C31           -8.7341     2.6249     0.8857 C.3     
  32 O32           -7.4888     2.1051     0.3724 O.3     
  33 C33           -8.7000     2.7391     2.3880 C.2     
  34 N34           -9.7990     3.1378     3.0586 N.am    
  35 O35           -7.6836     2.4723     2.9935 O.2     
  36 C36           -9.7914     3.1713     4.5232 C.3     
  37 C37            5.3586     2.5474    -1.8575 C.3     
  38 C38          -11.0012     3.5377     2.3230 C.3     
  39 H39            0.8702    -1.2577    -0.2056 H       
  40 H40           -3.2993    -0.4511     0.2573 H       
  41 H41           -0.5903     2.7213    -0.7338 H       
  42 H42           -2.2017     4.0884    -0.7600 H       
  43 H43           -4.8529     1.0150     0.2001 H       
  44 H44           -4.6642     5.1127    -0.5896 H       
  45 H45            0.8350     2.8692    -1.7718 H       
  46 H46            2.9466     2.0189    -2.8350 H       
  47 H47            3.0422     3.7368    -2.3791 H       
  48 H48            1.8997     4.4988    -0.2358 H       
  49 H49            0.8731     3.3533     0.6598 H       
  50 H50            2.6424     3.1591     0.6708 H       
  51 H51           -2.3278    -1.4499    -1.9801 H       
  52 H52           -2.2276    -4.7929     0.6812 H       
  53 H53           -3.5585    -6.1033    -0.9219 H       
  54 H54           -3.6619    -2.7659    -3.5759 H       
  55 H55           -6.5733    -4.0670    -3.0969 H       
  56 H56           -7.0339    -5.6837    -3.6823 H       
  57 H57           -6.5283    -5.4605    -1.9904 H       
  58 H58           -9.1842     4.7664     0.9086 H       
  59 H59           -9.3490     3.9969    -0.7045 H       
  60 H60           -9.5748     2.0120     0.5606 H       
  61 H61           -9.4521     4.1500     4.8625 H       
  62 H62          -10.7988     2.9866     4.8961 H       
  63 H63           -9.1176     2.4021     4.9007 H       
  64 H64            6.1694     2.3187    -1.1659 H       
  65 H65            5.3828     1.8450    -2.6907 H       
  66 H66            5.4784     3.5629    -2.2348 H       
  67 H67          -11.6779     2.6870     2.2429 H       
  68 H68          -11.4989     4.3491     2.8540 H       
  69 H69          -10.7211     3.8745     1.3249 H       
@<TRIPOS>BOND
   1    1    2 ar
   2    1   12 1
   3    1    6 ar
   4    2    3 ar
   5    2   39 1
   6    3    4 ar
   7    3   17 1
   8    4    5 ar
   9    4   40 1
  10    5    6 ar
  11    5    7 1
  12    6   41 1
  13    7    8 2
  14    7    9 1
  15    8   11 1
  16    8   42 1
  17    9   10 1
  18    9   43 1
  19   10   11 2
  20   10   28 1
  21   11   44 1
  22   12   13 1
  23   13   14 1
  24   13   16 1
  25   13   45 1
  26   14   15 1
  27   14   46 1
  28   14   47 1
  29   15   37 1
  30   16   48 1
  31   16   49 1
  32   16   50 1
  33   17   18 1
  34   18   19 ar
  35   18   20 ar
  36   19   23 ar
  37   19   51 1
  38   20   21 ar
  39   20   52 1
  40   21   22 ar
  41   21   53 1
  42   22   23 ar
  43   22   24 1
  44   23   54 1
  45   24   25 1
  46   24   26 2
  47   24   27 2
  48   25   55 1
  49   25   56 1
  50   25   57 1
  51   28   29 2
  52   28   32 1
  53   29   30 1
  54   30   31 1
  55   30   58 1
  56   30   59 1
  57   31   32 1
  58   31   33 1
  59   31   60 1
  60   33   34 am
  61   33   35 2
  62   34   36 1
  63   34   38 1
  64   36   61 1
  65   36   62 1
  66   36   63 1
  67   37   64 1
  68   37   65 1
  69   37   66 1
  70   38   67 1
  71   38   68 1
  72   38   69 1

#	End of record

