#	Name: ASD03331400
#	Creating user name:	WinNT
#	Creation time:	15. 06. 2019 20:39

#	Modifying user name:	WinNT
#	Modification time:	15. 06. 2019 20:39

#	Program:	/corina/corina34_cracker 3.40 0067  02.08.2006

@<TRIPOS>MOLECULE
ASD03331400
  61   64    0    0    0
SMALL
NO_CHARGES


@<TRIPOS>ATOM
   1 C1            -0.8482     1.2872     0.0424 C.3     
   2 O2            -0.8605    -0.1389    -0.0609 O.3     
   3 C3            -0.1936    -0.6552    -1.2224 C.3     
   4 C4             1.1668    -0.0188    -1.2944 C.2     
   5 C5             1.5206     1.0793    -0.5761 C.2     
   6 C6             0.5722     1.7734     0.3679 C.3     
   7 C7             2.2971    -0.3674    -2.0475 C.2     
   8 N8             3.2410     0.5114    -1.7493 N.2     
   9 N9             2.8001     1.3642    -0.8879 N.pl3   
  10 C10            2.4121    -1.4971    -2.9913 C.2     
  11 O11            1.4632    -2.2345    -3.1754 O.2     
  12 N12            3.5691    -1.7108    -3.6488 N.am    
  13 C13            3.6833    -2.8316    -4.5852 C.3     
  14 C14            3.1530    -2.4069    -5.9561 C.3     
  15 C15            5.1294    -3.2369    -4.7096 C.2     
  16 C16            3.5410     2.4285    -0.3560 C.ar    
  17 C17            4.2711     3.2590    -1.1989 C.ar    
  18 C18            5.0008     4.3088    -0.6704 C.ar    
  19 C19            5.0043     4.5319     0.6937 C.ar    
  20 C20            4.2783     3.7066     1.5349 C.ar    
  21 C21            3.5429     2.6592     1.0128 C.ar    
  22 C22            3.8824    -1.1430    -6.4159 C.3     
  23 C23            3.3932    -3.5305    -6.9663 C.3     
  24 C24            1.6529    -2.1223    -5.8568 C.3     
  25 N25            5.4509    -4.5264    -4.9341 N.am    
  26 O26            6.0039    -2.4028    -4.6077 O.2     
  27 C27            4.4151    -5.5437    -5.1674 C.3     
  28 Cl28           4.2862     3.9914     3.2474 Cl      
  29 F29            4.2682     3.0409    -2.5322 F       
  30 C30            4.7717    -6.7870    -4.3990 C.2     
  31 N31            5.9706    -6.9822    -3.8482 N.am    
  32 C32            7.0457    -5.9997    -3.8378 C.3     
  33 C33            6.8541    -4.9726    -4.9619 C.3     
  34 O34            3.9301    -7.6513    -4.2744 O.2     
  35 H35           -1.1721     1.7218    -0.9033 H       
  36 H36           -1.5284     1.5989     0.8350 H       
  37 H37           -0.0908    -1.7371    -1.1384 H       
  38 H38           -0.7650    -0.4066    -2.1168 H       
  39 H39            0.6348     2.8526     0.2275 H       
  40 H40            0.8232     1.5187     1.3976 H       
  41 H41            4.3262    -1.1224    -3.5019 H       
  42 H42            3.1001    -3.6749    -4.2154 H       
  43 H43            5.5685     4.9543    -1.3242 H       
  44 H44            5.5750     5.3519     1.1041 H       
  45 H45            2.9768     2.0158     1.6701 H       
  46 H46            4.9511    -1.3457    -6.4866 H       
  47 H47            3.5046    -0.8404    -7.3926 H       
  48 H48            3.7113    -0.3425    -5.6962 H       
  49 H49            2.8279    -4.4137    -6.6687 H       
  50 H50            3.0670    -3.2064    -7.9546 H       
  51 H51            4.4557    -3.7719    -6.9954 H       
  52 H52            1.4818    -1.3218    -5.1371 H       
  53 H53            1.2751    -1.8197    -6.8335 H       
  54 H54            1.1332    -3.0227    -5.5292 H       
  55 H55            3.4506    -5.1677    -4.8262 H       
  56 H56            4.3632    -5.7745    -6.2314 H       
  57 H57            6.1382    -7.8385    -3.4245 H       
  58 H58            7.0526    -5.4856    -2.8766 H       
  59 H59            7.9989    -6.5094    -3.9781 H       
  60 H60            7.0798    -5.4334    -5.9235 H       
  61 H61            7.5137    -4.1205    -4.7979 H       
@<TRIPOS>BOND
   1    1    2 1
   2    1    6 1
   3    1   35 1
   4    1   36 1
   5    2    3 1
   6    3    4 1
   7    3   37 1
   8    3   38 1
   9    4    5 2
  10    4    7 1
  11    5    6 1
  12    5    9 1
  13    6   39 1
  14    6   40 1
  15    7    8 2
  16    7   10 1
  17    8    9 1
  18    9   16 1
  19   10   11 2
  20   10   12 am
  21   12   13 1
  22   12   41 1
  23   13   14 1
  24   13   15 1
  25   13   42 1
  26   14   22 1
  27   14   23 1
  28   14   24 1
  29   15   25 am
  30   15   26 2
  31   16   17 ar
  32   16   21 ar
  33   17   18 ar
  34   17   29 1
  35   18   19 ar
  36   18   43 1
  37   19   20 ar
  38   19   44 1
  39   20   21 ar
  40   20   28 1
  41   21   45 1
  42   22   46 1
  43   22   47 1
  44   22   48 1
  45   23   49 1
  46   23   50 1
  47   23   51 1
  48   24   52 1
  49   24   53 1
  50   24   54 1
  51   25   27 1
  52   25   33 1
  53   27   30 1
  54   27   55 1
  55   27   56 1
  56   30   31 am
  57   30   34 2
  58   31   32 1
  59   31   57 1
  60   32   33 1
  61   32   58 1
  62   32   59 1
  63   33   60 1
  64   33   61 1

#	End of record

