#	Name: ASD01420051
#	Creating user name:	WinNT
#	Creation time:	15. 06. 2019 19:20

#	Modifying user name:	WinNT
#	Modification time:	15. 06. 2019 19:20

#	Program:	/corina/corina34_cracker 3.40 0067  02.08.2006

@<TRIPOS>MOLECULE
ASD01420051
  70   74    0    0    0
SMALL
NO_CHARGES


@<TRIPOS>ATOM
   1 C1            -0.1801     0.9361    -1.5540 C.3     
   2 N2            -0.0773    -0.2577    -0.7092 N.am    
   3 C3             1.3110    -0.7216    -0.7934 C.3     
   4 C4             2.0538     0.2178    -1.7100 C.ar    
   5 C5             3.3724     0.2297    -2.1225 C.ar    
   6 C6             3.8223     1.2248    -2.9910 C.ar    
   7 C7             2.9336     2.2047    -3.4383 C.ar    
   8 C8             1.6207     2.1817    -3.0194 C.ar    
   9 C9             1.1791     1.1906    -2.1565 C.ar    
  10 C10            5.2313     1.2420    -3.4345 C.2     
  11 O11            6.0017     0.3883    -3.0430 O.2     
  12 O12            5.6619     2.2044    -4.2730 O.3     
  13 C13           -1.0697    -0.8212     0.0079 C.2     
  14 C14           -2.3878    -0.1678     0.0815 C.ar    
  15 C15           -3.5598    -0.9300    -0.0404 C.ar    
  16 C16           -4.7942    -0.3082     0.0305 C.ar    
  17 C17           -4.8705     1.0638     0.2214 C.ar    
  18 C18           -3.7094     1.8209     0.3420 C.ar    
  19 C19           -2.4764     1.2135     0.2790 C.ar    
  20 O20           -0.8769    -1.8692     0.5941 O.2     
  21 C21           -3.8026     3.3108     0.5482 C.3     
  22 C22           -3.1306     3.6857     1.8706 C.3     
  23 C23           -3.0982     4.0302    -0.6038 C.3     
  24 O24           -6.0827     1.6701     0.2904 O.3     
  25 C25           -7.2344     0.8345     0.1585 C.3     
  26 C26           -8.4802     1.6764     0.2600 C.ar    
  27 C27           -9.0361     2.2284    -0.8789 C.ar    
  28 C28          -10.1788     3.0007    -0.7858 C.ar    
  29 C29          -10.7658     3.2207     0.4462 C.ar    
  30 C30          -10.2105     2.6679     1.5850 C.ar    
  31 C31           -9.0702     1.8920     1.4914 C.ar    
  32 O32           -3.4830    -2.2715    -0.2275 O.3     
  33 C33           -4.7174    -2.9820    -0.3430 C.3     
  34 C34           -4.4358    -4.4486    -0.5450 C.ar    
  35 C35           -4.3219    -5.2875     0.5478 C.ar    
  36 C36           -4.0635    -6.6328     0.3625 C.ar    
  37 C37           -3.9195    -7.1393    -0.9157 C.ar    
  38 C38           -4.0344    -6.3006    -2.0085 C.ar    
  39 C39           -4.2970    -4.9561    -1.8233 C.ar    
  40 H40           -0.9093     0.7665    -2.3461 H       
  41 H41           -0.4822     1.7914    -0.9496 H       
  42 H42            1.7658    -0.7078     0.1971 H       
  43 H43            1.3386    -1.7328    -1.1994 H       
  44 H44            4.0547    -0.5308    -1.7726 H       
  45 H45            3.2741     2.9785    -4.1103 H       
  46 H46            0.9329     2.9394    -3.3646 H       
  47 H47            6.5921     2.1742    -4.5353 H       
  48 H48           -5.6984    -0.8912    -0.0632 H       
  49 H49           -1.5775     1.8039     0.3779 H       
  50 H50           -4.8507     3.6089     0.5760 H       
  51 H51           -2.0825     3.3876     1.8429 H       
  52 H52           -3.1980     4.7633     2.0198 H       
  53 H53           -3.6324     3.1732     2.6913 H       
  54 H54           -2.0501     3.7321    -0.6316 H       
  55 H55           -3.5769     3.7631    -1.5459 H       
  56 H56           -3.1656     5.1078    -0.4546 H       
  57 H57           -7.2117     0.3346    -0.8099 H       
  58 H58           -7.2347     0.0880     0.9528 H       
  59 H59           -8.5774     2.0565    -1.8415 H       
  60 H60          -10.6126     3.4325    -1.6756 H       
  61 H61          -11.6582     3.8247     0.5190 H       
  62 H62          -10.6689     2.8401     2.5476 H       
  63 H63           -8.6384     1.4571     2.3806 H       
  64 H64           -5.3014    -2.8462     0.5673 H       
  65 H65           -5.2788    -2.5991    -1.1953 H       
  66 H66           -4.4344    -4.8918     1.5464 H       
  67 H67           -3.9738    -7.2881     1.2163 H       
  68 H68           -3.7169    -8.1902    -1.0604 H       
  69 H69           -3.9215    -6.6962    -3.0071 H       
  70 H70           -4.3904    -4.3015    -2.6773 H       
@<TRIPOS>BOND
   1    1    2 1
   2    1    9 1
   3    1   40 1
   4    1   41 1
   5    2    3 1
   6    2   13 am
   7    3    4 1
   8    3   42 1
   9    3   43 1
  10    4    5 ar
  11    4    9 ar
  12    5    6 ar
  13    5   44 1
  14    6    7 ar
  15    6   10 1
  16    7    8 ar
  17    7   45 1
  18    8    9 ar
  19    8   46 1
  20   10   11 2
  21   10   12 1
  22   12   47 1
  23   13   14 1
  24   13   20 2
  25   14   15 ar
  26   14   19 ar
  27   15   16 ar
  28   15   32 1
  29   16   17 ar
  30   16   48 1
  31   17   18 ar
  32   17   24 1
  33   18   19 ar
  34   18   21 1
  35   19   49 1
  36   21   22 1
  37   21   23 1
  38   21   50 1
  39   22   51 1
  40   22   52 1
  41   22   53 1
  42   23   54 1
  43   23   55 1
  44   23   56 1
  45   24   25 1
  46   25   26 1
  47   25   57 1
  48   25   58 1
  49   26   27 ar
  50   26   31 ar
  51   27   28 ar
  52   27   59 1
  53   28   29 ar
  54   28   60 1
  55   29   30 ar
  56   29   61 1
  57   30   31 ar
  58   30   62 1
  59   31   63 1
  60   32   33 1
  61   33   34 1
  62   33   64 1
  63   33   65 1
  64   34   35 ar
  65   34   39 ar
  66   35   36 ar
  67   35   66 1
  68   36   37 ar
  69   36   67 1
  70   37   38 ar
  71   37   68 1
  72   38   39 ar
  73   38   69 1
  74   39   70 1

#	End of record

