#	Name: ASD01120140
#	Creating user name:	WinNT
#	Creation time:	15. 06. 2019 18:59

#	Modifying user name:	WinNT
#	Modification time:	15. 06. 2019 18:59

#	Program:	/corina/corina34_cracker 3.40 0067  02.08.2006

@<TRIPOS>MOLECULE
ASD01120140
  42   44    0    0    0
SMALL
NO_CHARGES


@<TRIPOS>ATOM
   1 C1            -0.0589     1.4182     0.6852 C.ar    
   2 C2            -0.0455     0.0193     0.7747 C.ar    
   3 C3            -1.2120    -0.7041     0.6601 C.ar    
   4 C4            -2.4228    -0.0324     0.4525 C.ar    
   5 C5            -2.4285     1.3818     0.3636 C.ar    
   6 C6            -1.2297     2.0939     0.4881 C.ar    
   7 N7            -3.5866    -0.6906     0.3338 N.ar    
   8 C8            -4.7053    -0.0338     0.1393 C.ar    
   9 N9            -4.7590     1.2856     0.0493 N.ar    
  10 C10           -3.6675     2.0326     0.1529 C.ar    
  11 C11           -6.0869     3.4973     0.6099 C.ar    
  12 C12           -4.9831     4.0394    -0.0351 C.ar    
  13 C13           -5.1165     5.2097    -0.7711 C.ar    
  14 C14           -6.3471     5.8321    -0.8598 C.ar    
  15 C15           -7.4472     5.2889    -0.2150 C.ar    
  16 C16           -7.3155     4.1226     0.5188 C.ar    
  17 O17            1.1057     2.1105     0.8014 O.3     
  18 C18            1.0270     3.5339     0.7014 C.3     
  19 C19            2.4259     4.1341     0.8555 C.3     
  20 O20            1.1307    -0.6299     0.9762 O.3     
  21 C21            1.0790    -2.0556     1.0585 C.3     
  22 C22            2.4889    -2.6047     1.2857 C.3     
  23 N23           -3.7383     3.4077     0.0566 N.pl3   
  24 Cl24          -6.5151     7.2953    -1.7788 Cl      
  25 F25           -8.6495     5.8988    -0.3023 F       
  26 H26           -1.1928    -1.7817     0.7296 H       
  27 H27           -1.2293     3.1718     0.4209 H       
  28 H28           -5.6236    -0.5948     0.0482 H       
  29 H29           -5.9860     2.5850     1.1789 H       
  30 H30           -4.2592     5.6331    -1.2732 H       
  31 H31           -8.1740     3.7007     1.0201 H       
  32 H32            0.6193     3.8077    -0.2717 H       
  33 H33            0.3780     3.9181     1.4883 H       
  34 H34            2.8336     3.8602     1.8286 H       
  35 H35            3.0748     3.7499     0.0685 H       
  36 H36            2.3659     5.2197     0.7792 H       
  37 H37            0.4368    -2.3485     1.8891 H       
  38 H38            0.6774    -2.4589     0.1289 H       
  39 H39            3.1311    -2.3118     0.4551 H       
  40 H40            2.8905    -2.2014     2.2153 H       
  41 H41            2.4494    -3.6922     1.3485 H       
  42 H42           -2.9248     3.9361     0.0525 H       
@<TRIPOS>BOND
   1    1    2 ar
   2    1   17 1
   3    1    6 ar
   4    2    3 ar
   5    2   20 1
   6    3    4 ar
   7    3   26 1
   8    4    5 ar
   9    4    7 ar
  10    5    6 ar
  11    5   10 ar
  12    6   27 1
  13    7    8 ar
  14    8    9 ar
  15    8   28 1
  16    9   10 ar
  17   10   23 1
  18   11   12 ar
  19   11   16 ar
  20   11   29 1
  21   12   13 ar
  22   12   23 1
  23   13   14 ar
  24   13   30 1
  25   14   15 ar
  26   14   24 1
  27   15   16 ar
  28   15   25 1
  29   16   31 1
  30   17   18 1
  31   18   19 1
  32   18   32 1
  33   18   33 1
  34   19   34 1
  35   19   35 1
  36   19   36 1
  37   20   21 1
  38   21   22 1
  39   21   37 1
  40   21   38 1
  41   22   39 1
  42   22   40 1
  43   22   41 1
  44   23   42 1

#	End of record

