#	Name: ASD01911241
#	Creating user name:	WinNT
#	Creation time:	15. 06. 2019 19:57

#	Modifying user name:	WinNT
#	Modification time:	15. 06. 2019 19:57

#	Program:	/corina/corina34_cracker 3.40 0067  02.08.2006

@<TRIPOS>MOLECULE
ASD01911241
  44   47    0    0    0
SMALL
NO_CHARGES


@<TRIPOS>ATOM
   1 C1            -0.2321     0.9789     0.0366 C.3     
   2 C2             0.2532    -0.4667    -0.1103 C.3     
   3 N3             1.1726    -0.7714     0.9944 N.am    
   4 C4             2.3205     0.1166     1.2235 C.3     
   5 C5             1.8121     1.5556     1.3554 C.3     
   6 C6             0.9774     1.9125     0.1233 C.3     
   7 C7             0.9668    -1.8448     1.7830 C.2     
   8 O8             1.7871    -2.1457     2.6240 O.2     
   9 C9            -0.2828    -2.6712     1.6196 C.3     
  10 C10           -0.3676    -3.8588     2.5930 C.3     
  11 C11           -1.8636    -3.5330     2.7364 C.3     
  12 C12           -1.5060    -2.0889     2.3473 C.3     
  13 C13            3.0270    -0.2879     2.4917 C.2     
  14 N14            4.2313    -0.7944     2.5837 N.2     
  15 C15            4.4399    -0.9975     3.9042 C.2     
  16 N16            3.3607    -0.6062     4.5302 N.2     
  17 O17            2.5445    -0.1917     3.7346 O.3     
  18 C18            5.6645    -1.5598     4.5265 C.ar    
  19 C19            5.7388    -1.7127     5.9091 C.ar    
  20 C20            6.8797    -2.2366     6.4833 C.ar    
  21 C21            7.9482    -2.6096     5.6889 C.ar    
  22 C22            7.8804    -2.4600     4.3141 C.ar    
  23 C23            6.7414    -1.9418     3.7292 C.ar    
  24 Cl24           9.2261    -2.9307     3.3235 Cl      
  25 H25           -0.8387     1.2486    -0.8280 H       
  26 H26           -0.8292     1.0718     0.9437 H       
  27 H27           -0.6000    -1.1441    -0.0730 H       
  28 H28            0.7733    -0.5827    -1.0612 H       
  29 H29            3.0092     0.0481     0.3814 H       
  30 H30            1.1958     1.6431     2.2502 H       
  31 H31            2.6605     2.2359     1.4295 H       
  32 H32            1.5873     1.8009    -0.7732 H       
  33 H33            0.6348     2.9442     0.2031 H       
  34 H34           -0.4784    -2.9422     0.5821 H       
  35 H35           -0.1738    -4.8231     2.1232 H       
  36 H36            0.2012    -3.7122     3.5112 H       
  37 H37           -2.4929    -4.0394     2.0044 H       
  38 H38           -2.2360    -3.6311     3.7561 H       
  39 H39           -1.2485    -1.4584     3.1984 H       
  40 H40           -2.2312    -1.6243     1.6792 H       
  41 H41            4.9052    -1.4215     6.5310 H       
  42 H42            6.9379    -2.3550     7.5552 H       
  43 H43            8.8390    -3.0187     6.1423 H       
  44 H44            6.6889    -1.8253     2.6568 H       
@<TRIPOS>BOND
   1    1    2 1
   2    1    6 1
   3    1   25 1
   4    1   26 1
   5    2    3 1
   6    2   27 1
   7    2   28 1
   8    3    4 1
   9    3    7 am
  10    4    5 1
  11    4   13 1
  12    4   29 1
  13    5    6 1
  14    5   30 1
  15    5   31 1
  16    6   32 1
  17    6   33 1
  18    7    8 2
  19    7    9 1
  20    9   10 1
  21    9   12 1
  22    9   34 1
  23   10   11 1
  24   10   35 1
  25   10   36 1
  26   11   12 1
  27   11   37 1
  28   11   38 1
  29   12   39 1
  30   12   40 1
  31   13   14 2
  32   13   17 1
  33   14   15 1
  34   15   16 2
  35   15   18 1
  36   16   17 1
  37   18   19 ar
  38   18   23 ar
  39   19   20 ar
  40   19   41 1
  41   20   21 ar
  42   20   42 1
  43   21   22 ar
  44   21   43 1
  45   22   23 ar
  46   22   24 1
  47   23   44 1

#	End of record

