#	Name: ASD08070046
#	Creating user name:	WinNT
#	Creation time:	15. 06. 2019 21:14

#	Modifying user name:	WinNT
#	Modification time:	15. 06. 2019 21:14

#	Program:	/corina/corina34_cracker 3.40 0067  02.08.2006

@<TRIPOS>MOLECULE
ASD08070046
  40   41    0    0    0
SMALL
NO_CHARGES


@<TRIPOS>ATOM
   1 C1            -0.0169     1.3916     0.0097 C.ar    
   2 C2             0.0021    -0.0041     0.0020 C.ar    
   3 C3            -1.1845    -0.7103     0.0092 C.ar    
   4 C4            -2.4028    -0.0256     0.0242 C.ar    
   5 C5            -2.4149     1.3709     0.0319 C.ar    
   6 C6            -1.2277     2.0705     0.0198 C.ar    
   7 O7             1.2696     1.8438    -0.0002 O.3     
   8 C8             2.0762     0.7203     0.3996 C.3     
   9 O9             1.3020    -0.4216    -0.0122 O.3     
  10 C10           -3.6735    -0.7766     0.0314 C.2     
  11 N11           -4.8474    -0.1147     0.0459 N.am    
  12 O12           -3.6612    -1.9924     0.0243 O.2     
  13 C13           -6.1086    -0.8600     0.0530 C.3     
  14 C14           -6.4652    -1.2304     1.4696 C.2     
  15 C15           -7.2183     0.0095    -0.5416 C.3     
  16 C16           -6.9175     0.2820    -2.0167 C.3     
  17 C17           -8.0272     1.1515    -2.6113 C.3     
  18 O18           -5.7403    -0.9051     2.3798 O.2     
  19 O19           -7.5882    -1.9216     1.7202 O.3     
  20 C20           -7.8683    -2.2436     3.1080 C.3     
  21 C21           -7.7264     1.4240    -4.0865 C.3     
  22 H22           -1.1711    -1.7902     0.0029 H       
  23 H23           -3.3549     1.9027     0.0436 H       
  24 H24           -1.2392     3.1504     0.0261 H       
  25 H25            3.0373     0.7368    -0.1144 H       
  26 H26            2.2188     0.7166     1.4802 H       
  27 H27           -4.8572     0.8553     0.0516 H       
  28 H28           -5.9985    -1.7662    -0.5427 H       
  29 H29           -8.1726    -0.5101    -0.4553 H       
  30 H30           -7.2688     0.9544    -0.0005 H       
  31 H31           -5.9632     0.8016    -2.1030 H       
  32 H32           -6.8670    -0.6629    -2.5578 H       
  33 H33           -8.9815     0.6320    -2.5250 H       
  34 H34           -8.0777     2.0964    -2.0702 H       
  35 H35           -7.0561    -2.8480     3.5119 H       
  36 H36           -7.9568    -1.3224     3.6840 H       
  37 H37           -8.8024    -2.8020     3.1701 H       
  38 H38           -6.7721     1.9436    -4.1728 H       
  39 H39           -7.6759     0.4792    -4.6276 H       
  40 H40           -8.5169     2.0435    -4.5101 H       
@<TRIPOS>BOND
   1    1    2 ar
   2    1    7 1
   3    1    6 ar
   4    2    3 ar
   5    2    9 1
   6    3    4 ar
   7    3   22 1
   8    4    5 ar
   9    4   10 1
  10    5    6 ar
  11    5   23 1
  12    6   24 1
  13    7    8 1
  14    8    9 1
  15    8   25 1
  16    8   26 1
  17   10   11 am
  18   10   12 2
  19   11   13 1
  20   11   27 1
  21   13   14 1
  22   13   15 1
  23   13   28 1
  24   14   18 2
  25   14   19 1
  26   15   16 1
  27   15   29 1
  28   15   30 1
  29   16   17 1
  30   16   31 1
  31   16   32 1
  32   17   21 1
  33   17   33 1
  34   17   34 1
  35   19   20 1
  36   20   35 1
  37   20   36 1
  38   20   37 1
  39   21   38 1
  40   21   39 1
  41   21   40 1

#	End of record

