#	Name: ASD01911829
#	Creating user name:	WinNT
#	Creation time:	15. 06. 2019 19:58

#	Modifying user name:	WinNT
#	Modification time:	15. 06. 2019 19:58

#	Program:	/corina/corina34_cracker 3.40 0067  02.08.2006

@<TRIPOS>MOLECULE
ASD01911829
  36   38    0    0    0
SMALL
NO_CHARGES


@<TRIPOS>ATOM
   1 C1            -1.0979    -1.0224     2.6627 C.ar    
   2 C2            -1.1730    -0.1945     1.5466 C.ar    
   3 C3            -1.3236     1.1722     1.7306 C.ar    
   4 N4            -1.3949     1.6839     2.9435 N.ar    
   5 C5            -1.3270     0.9275     4.0214 C.ar    
   6 C6            -1.1771    -0.4431     3.9185 C.ar    
   7 O7            -1.0996    -0.7174     0.2944 O.3     
   8 C8            -0.9525    -2.0628     0.1725 C.ar    
   9 C9             0.2894    -2.6003    -0.1366 C.ar    
  10 C10            0.4406    -3.9692    -0.2605 C.ar    
  11 C11           -0.6448    -4.8063    -0.0773 C.ar    
  12 C12           -1.8894    -4.2730     0.2318 C.ar    
  13 C13           -2.0412    -2.8993     0.3625 C.ar    
  14 N14           -2.9873    -5.1193     0.4162 N.am    
  15 C15           -4.2226    -4.7057     0.0703 C.2     
  16 C16           -5.3953    -5.5575     0.3603 C.ar    
  17 C17           -6.6758    -5.1321     0.0033 C.ar    
  18 C18           -7.7667    -5.9317     0.2762 C.ar    
  19 C19           -7.5941    -7.1527     0.9026 C.ar    
  20 C20           -6.3265    -7.5814     1.2597 C.ar    
  21 C21           -5.2263    -6.7933     0.9871 C.ar    
  22 O22           -4.3722    -3.6323    -0.4802 O.2     
  23 Cl23          -6.1201    -9.1153     2.0460 Cl      
  24 Cl24           1.9952    -4.6380    -0.6473 Cl      
  25 H25           -0.9851    -2.0908     2.5524 H       
  26 H26           -1.3826     1.8239     0.8714 H       
  27 H27           -1.3889     1.3849     4.9978 H       
  28 H28           -1.1227    -1.0549     4.8069 H       
  29 H29            1.1385    -1.9486    -0.2809 H       
  30 H30           -0.5246    -5.8751    -0.1748 H       
  31 H31           -3.0082    -2.4825     0.6027 H       
  32 H32           -2.8599    -6.0040     0.7931 H       
  33 H33           -6.8126    -4.1786    -0.4852 H       
  34 H34           -8.7579    -5.6031     0.0003 H       
  35 H35           -8.4515    -7.7743     1.1145 H       
  36 H36           -4.2380    -7.1283     1.2655 H       
@<TRIPOS>BOND
   1    1    2 ar
   2    1    6 ar
   3    1   25 1
   4    2    3 ar
   5    2    7 1
   6    3    4 ar
   7    3   26 1
   8    4    5 ar
   9    5    6 ar
  10    5   27 1
  11    6   28 1
  12    7    8 1
  13    8    9 ar
  14    8   13 ar
  15    9   10 ar
  16    9   29 1
  17   10   11 ar
  18   10   24 1
  19   11   12 ar
  20   11   30 1
  21   12   13 ar
  22   12   14 1
  23   13   31 1
  24   14   15 am
  25   14   32 1
  26   15   16 1
  27   15   22 2
  28   16   17 ar
  29   16   21 ar
  30   17   18 ar
  31   17   33 1
  32   18   19 ar
  33   18   34 1
  34   19   20 ar
  35   19   35 1
  36   20   21 ar
  37   20   23 1
  38   21   36 1

#	End of record

