#	Name: ASD09080120
#	Creating user name:	WinNT
#	Creation time:	15. 06. 2019 21:20

#	Modifying user name:	WinNT
#	Modification time:	15. 06. 2019 21:20

#	Program:	/corina/corina34_cracker 3.40 0067  02.08.2006

@<TRIPOS>MOLECULE
ASD09080120
  54   56    0    0    0
SMALL
NO_CHARGES


@<TRIPOS>ATOM
   1 C1             3.1649     0.5376     1.1477 C.ar    
   2 C2             2.6993    -0.7481     0.9514 C.ar    
   3 C3             1.3404    -1.0231     1.0896 C.ar    
   4 C4             0.4577     0.0012     1.4252 C.ar    
   5 C5             0.9330     1.2836     1.6194 C.ar    
   6 C6             2.2846     1.5508     1.4861 C.ar    
   7 Cl7            4.8578     0.8818     0.9765 Cl      
   8 Cl8           -0.1657     2.5611     2.0371 Cl      
   9 C9             0.8350    -2.4024     0.8794 C.ar    
  10 C10           -0.5239    -2.6777     1.0175 C.ar    
  11 C11            1.7167    -3.4257     0.5377 C.ar    
  12 C12            1.2412    -4.7067     0.3435 C.ar    
  13 C13           -0.1080    -4.9756     0.4875 C.ar    
  14 C14           -0.9886    -3.9624     0.8209 C.ar    
  15 C15           -0.6213    -6.3763     0.2741 C.3     
  16 C16           -0.5883    -7.1391     1.6000 C.3     
  17 C17           -1.2242    -8.5178     1.4112 C.3     
  18 N18            0.8008    -7.2978     2.0376 N.am    
  19 C19           -1.1917    -9.2691     2.7171 C.ar    
  20 O20           -2.5792    -8.3630     0.9843 O.3     
  21 C21           -0.2034   -10.2294     2.9485 C.ar    
  22 O22           -0.1823   -10.8340     4.0069 O.3     
  23 O23            0.7276   -10.4880     1.9998 O.3     
  24 C24            1.0805    -7.4631     3.3456 C.2     
  25 C25            2.5094    -7.6264     3.7957 C.3     
  26 O26            0.1823    -7.4805     4.1603 O.2     
  27 O27            2.5465    -7.7846     5.2155 O.3     
  28 C28            3.8625    -7.9478     5.7480 C.3     
  29 O29           -2.0233    -9.0375     3.5753 O.3     
  30 C30           -1.0213   -10.5997     4.8586 C.ar    
  31 C31           -1.9957    -9.6452     4.6306 C.ar    
  32 H32            3.3874    -1.5387     0.6910 H       
  33 H33           -0.5966    -0.2070     1.5331 H       
  34 H34            2.6524     2.5547     1.6387 H       
  35 H35           -1.2123    -1.8874     1.2782 H       
  36 H36            2.7703    -3.2168     0.4247 H       
  37 H37            1.9237    -5.5006     0.0782 H       
  38 H38           -2.0410    -4.1779     0.9325 H       
  39 H39           -1.6457    -6.3354    -0.0961 H       
  40 H40            0.0083    -6.8869    -0.4546 H       
  41 H41           -1.1452    -6.5822     2.3535 H       
  42 H42           -0.6673    -9.0747     0.6577 H       
  43 H43            1.5192    -7.2839     1.3859 H       
  44 H44           -3.1125    -7.8021     1.5640 H       
  45 H45            0.5001   -11.4995     4.1703 H       
  46 H46            1.5220    -9.9410     2.0689 H       
  47 H47            2.9417    -8.5071     3.3207 H       
  48 H48            3.0825    -6.7432     3.5135 H       
  49 H49            3.8049    -8.0616     6.8305 H       
  50 H50            4.3228    -8.8352     5.3134 H       
  51 H51            4.4636    -7.0713     5.5062 H       
  52 H52           -2.7059    -8.3706     3.4194 H       
  53 H53           -1.0016   -11.1359     5.7959 H       
  54 H54           -2.7370    -9.4409     5.3889 H       
@<TRIPOS>BOND
   1    1    2 ar
   2    1    7 1
   3    1    6 ar
   4    2    3 ar
   5    2   32 1
   6    3    4 ar
   7    3    9 1
   8    4    5 ar
   9    4   33 1
  10    5    6 ar
  11    5    8 1
  12    6   34 1
  13    9   10 ar
  14    9   11 ar
  15   10   14 ar
  16   10   35 1
  17   11   12 ar
  18   11   36 1
  19   12   13 ar
  20   12   37 1
  21   13   14 ar
  22   13   15 1
  23   14   38 1
  24   15   16 1
  25   15   39 1
  26   15   40 1
  27   16   17 1
  28   16   18 1
  29   16   41 1
  30   17   19 1
  31   17   20 1
  32   17   42 1
  33   18   24 am
  34   18   43 1
  35   19   21 ar
  36   19   29 ar
  37   20   44 1
  38   21   22 ar
  39   21   23 1
  40   22   30 ar
  41   22   45 1
  42   23   46 1
  43   24   25 1
  44   24   26 2
  45   25   27 1
  46   25   47 1
  47   25   48 1
  48   27   28 1
  49   28   49 1
  50   28   50 1
  51   28   51 1
  52   29   31 ar
  53   29   52 1
  54   30   31 ar
  55   30   53 1
  56   31   54 1

#	End of record

