#	Name: ASD03091917
#	Creating user name:	WinNT
#	Creation time:	15. 06. 2019 20:31

#	Modifying user name:	WinNT
#	Modification time:	15. 06. 2019 20:31

#	Program:	/corina/corina34_cracker 3.40 0067  02.08.2006

@<TRIPOS>MOLECULE
ASD03091917
  58   62    0    0    0
SMALL
NO_CHARGES


@<TRIPOS>ATOM
   1 C1            -0.0170     1.3998     0.0097 C.ar    
   2 C2            -1.2283     2.0682     0.0306 C.ar    
   3 C3            -2.4087     1.3494     0.0435 C.ar    
   4 C4            -2.3914    -0.0360     0.0356 C.ar    
   5 C5            -1.1918    -0.7183     0.0148 C.ar    
   6 C6             0.0021    -0.0041     0.0020 C.ar    
   7 O7             1.1631     2.0665     0.0021 O.3     
   8 C8             2.2620     1.4580     0.6804 C.3     
   9 N9             2.4081     0.0565     0.2863 N.am    
  10 C10            1.3144    -0.6822    -0.0142 C.2     
  11 C11           -3.6892    -0.8018     0.0501 C.3     
  12 C12           -4.1424    -1.0492    -1.3657 C.ar    
  13 C13           -4.9543    -0.1268    -2.0005 C.ar    
  14 C14           -3.7403    -2.1952    -2.0276 C.ar    
  15 C15           -4.1521    -2.4265    -3.3246 C.ar    
  16 C16           -4.9741    -1.5033    -3.9667 C.ar    
  17 C17           -5.3719    -0.3482    -3.2973 C.ar    
  18 O18            1.4088    -1.8630    -0.2883 O.2     
  19 C19            3.7406    -0.5484     0.2167 C.3     
  20 C20            3.8150    -1.7311     1.1845 C.3     
  21 C21           -5.4202    -1.7468    -5.3618 C.2     
  22 C22            5.2066    -2.3628     1.1119 C.3     
  23 C23            4.0045    -1.0383    -1.2085 C.3     
  24 C24            5.3961    -1.6701    -1.2812 C.3     
  25 C25            5.4705    -2.8527    -0.3133 C.3     
  26 O26            3.9351     0.0662    -2.1124 O.3     
  27 C27           -5.0981    -2.8649    -6.1554 C.2     
  28 N28           -5.6763    -2.7177    -7.3180 N.2     
  29 N29           -6.3846    -1.5099    -7.3128 N.pl3   
  30 C30           -6.2215    -0.9310    -6.1060 C.2     
  31 C31           -7.1713    -0.9708    -8.4248 C.3     
  32 H32           -1.2513     3.1479     0.0371 H       
  33 H33           -3.3534     1.8725     0.0602 H       
  34 H34           -1.1800    -1.7983     0.0090 H       
  35 H35            3.1773     1.9966     0.4346 H       
  36 H36            2.0934     1.5120     1.7559 H       
  37 H37           -3.5425    -1.7558     0.5566 H       
  38 H38           -4.4468    -0.2228     0.5782 H       
  39 H39           -5.2623     0.7682    -1.4804 H       
  40 H40           -3.1026    -2.9101    -1.5289 H       
  41 H41           -3.8373    -3.3214    -3.8407 H       
  42 H42           -6.0058     0.3727    -3.7921 H       
  43 H43            4.4910     0.1931     0.4908 H       
  44 H44            3.6270    -1.3820     2.1999 H       
  45 H45            3.0646    -2.4726     0.9104 H       
  46 H46            5.9570    -1.6213     1.3860 H       
  47 H47            5.2596    -3.2053     1.8014 H       
  48 H48            3.2541    -1.7799    -1.4826 H       
  49 H49            5.5841    -2.0191    -2.2965 H       
  50 H50            6.1465    -0.9285    -1.0071 H       
  51 H51            6.4619    -3.3028    -0.3651 H       
  52 H52            4.7201    -3.5943    -0.5874 H       
  53 H53            4.0927    -0.1712    -3.0365 H       
  54 H54           -4.4804    -3.6985    -5.8556 H       
  55 H55           -6.6462     0.0094    -5.7872 H       
  56 H56           -8.1989    -1.3263    -8.3487 H       
  57 H57           -7.1597     0.1184    -8.3836 H       
  58 H58           -6.7408    -1.3033    -9.3693 H       
@<TRIPOS>BOND
   1    1    6 ar
   2    1    7 1
   3    1    2 ar
   4    2    3 ar
   5    2   32 1
   6    3    4 ar
   7    3   33 1
   8    4    5 ar
   9    4   11 1
  10    5    6 ar
  11    5   34 1
  12    6   10 1
  13    7    8 1
  14    8    9 1
  15    8   35 1
  16    8   36 1
  17    9   10 am
  18    9   19 1
  19   10   18 2
  20   11   12 1
  21   11   37 1
  22   11   38 1
  23   12   14 ar
  24   12   13 ar
  25   13   17 ar
  26   13   39 1
  27   14   15 ar
  28   14   40 1
  29   15   16 ar
  30   15   41 1
  31   16   17 ar
  32   16   21 1
  33   17   42 1
  34   19   23 1
  35   19   20 1
  36   19   43 1
  37   20   22 1
  38   20   44 1
  39   20   45 1
  40   21   30 2
  41   21   27 1
  42   22   25 1
  43   22   46 1
  44   22   47 1
  45   23   24 1
  46   23   26 1
  47   23   48 1
  48   24   25 1
  49   24   49 1
  50   24   50 1
  51   25   51 1
  52   25   52 1
  53   26   53 1
  54   27   28 2
  55   27   54 1
  56   28   29 1
  57   29   30 1
  58   29   31 1
  59   30   55 1
  60   31   56 1
  61   31   57 1
  62   31   58 1

#	End of record

