#	Name: ASD03091634
#	Creating user name:	WinNT
#	Creation time:	15. 06. 2019 20:31

#	Modifying user name:	WinNT
#	Modification time:	15. 06. 2019 20:31

#	Program:	/corina/corina34_cracker 3.40 0067  02.08.2006

@<TRIPOS>MOLECULE
ASD03091634
  42   44    0    0    0
SMALL
NO_CHARGES


@<TRIPOS>ATOM
   1 Cl1            0.0000     0.0000     0.0000 Cl      
   2 H2             0.0000     1.3700     0.0000 H       
   3 C3            14.5233    10.3501     6.5724 C.ar    
   4 C4            14.5423     8.9498     6.5647 C.ar    
   5 C5            15.7648     8.2699     6.5499 C.ar    
   6 C6            16.9457     8.9721     6.5432 C.ar    
   7 C7            16.9324    10.3617     6.5513 C.ar    
   8 C8            15.7571    11.0443     6.5644 C.ar    
   9 S9            12.8921     8.3383     6.5772 S.3     
  10 C10           12.2361     9.9658     6.5922 C.2     
  11 C11           13.2196    10.8713     6.5934 C.2     
  12 C12           10.8021    10.2890     6.6071 C.2     
  13 O13           10.4405    11.4505     6.6164 O.2     
  14 N14            9.8881     9.2986     6.6105 N.am    
  15 N15            6.9510     8.8765     8.4053 N.3     
  16 C16            7.9994     9.8489     8.0683 C.3     
  17 C17            8.4590     9.6207     6.6254 C.3     
  18 C18            7.6625     8.4523     6.0312 C.3     
  19 C19            6.1695     8.7999     6.0861 C.3     
  20 C20            5.7733     9.0502     7.5438 C.3     
  21 C21            7.4617     7.5010     8.3267 C.3     
  22 C22            7.9067     7.2061     6.8915 C.3     
  23 N23           18.2117    11.1064     6.5450 N.pl3   
  24 O24           19.2686    10.5011     6.5329 O.2     
  25 O25           18.2074    12.3243     6.5520 O.2     
  26 H26           15.7804     7.1900     6.5439 H       
  27 H27           17.8870     8.4427     6.5321 H       
  28 H28           15.7645    12.1242     6.5698 H       
  29 H29           13.0242    11.9334     6.6021 H       
  30 H30           10.1764     8.3725     6.6031 H       
  31 H31            7.6037    10.8596     8.1684 H       
  32 H32            8.8451     9.7206     8.7439 H       
  33 H33            8.2795    10.5213     6.0382 H       
  34 H34            7.9687     8.2760     5.0000 H       
  35 H35            5.9817     9.6978     5.4972 H       
  36 H36            5.5864     7.9702     5.6864 H       
  37 H37            5.0000     8.3403     7.8375 H       
  38 H38            5.3931    10.0664     7.6481 H       
  39 H39            8.3109     7.3892     9.0009 H       
  40 H40            6.6746     6.8038     8.6140 H       
  41 H41            7.3306     6.3700     6.4950 H       
  42 H42            8.9680     6.9578     6.8819 H       
@<TRIPOS>BOND
   1    1    2 1
   2    3    4 ar
   3    3    8 ar
   4    3   11 1
   5    4    5 ar
   6    4    9 1
   7    5    6 ar
   8    5   26 1
   9    6    7 ar
  10    6   27 1
  11    7    8 ar
  12    7   23 1
  13    8   28 1
  14    9   10 1
  15   10   11 2
  16   10   12 1
  17   11   29 1
  18   12   13 2
  19   12   14 am
  20   14   17 1
  21   14   30 1
  22   15   16 1
  23   15   20 1
  24   15   21 1
  25   16   17 1
  26   16   31 1
  27   16   32 1
  28   17   18 1
  29   17   33 1
  30   18   19 1
  31   18   22 1
  32   18   34 1
  33   19   20 1
  34   19   35 1
  35   19   36 1
  36   20   37 1
  37   20   38 1
  38   21   22 1
  39   21   39 1
  40   21   40 1
  41   22   41 1
  42   22   42 1
  43   23   24 2
  44   23   25 2

#	End of record

