#	Name: ASD09116456
#	Creating user name:	WinNT
#	Creation time:	15. 06. 2019 21:21

#	Modifying user name:	WinNT
#	Modification time:	15. 06. 2019 21:21

#	Program:	/corina/corina34_cracker 3.40 0067  02.08.2006

@<TRIPOS>MOLECULE
ASD09116456
  72   78    0    0    0
SMALL
NO_CHARGES


@<TRIPOS>ATOM
   1 N1             0.7101     0.4478    -0.4466 N.2     
   2 N2             0.9179    -0.8507    -0.9392 N.pl3   
   3 C3             1.8837     1.0310    -0.3976 C.2     
   4 N4             2.8153     0.1735    -0.8309 N.2     
   5 C5             2.2482    -0.9668    -1.1616 C.2     
   6 N6             2.8962    -2.0856    -1.6497 N.pl3   
   7 C7            -0.0547    -1.8285    -1.1558 C.ar    
   8 N8             2.1225     2.3353     0.0359 N.pl3   
   9 C9             3.4336     2.8058     0.1467 C.ar    
  10 C10            3.7104     4.1514    -0.0633 C.ar    
  11 C11            4.4619     1.9300     0.4726 C.ar    
  12 C12            5.7575     2.3968     0.5820 C.ar    
  13 C13            6.0246     3.7382     0.3660 C.ar    
  14 C14            5.0112     4.6060     0.0496 C.ar    
  15 N15            0.1562    -2.7867    -2.0458 N.ar    
  16 N16           -0.7103    -3.7043    -2.2903 N.ar    
  17 C17           -1.8743    -3.7445    -1.6620 C.ar    
  18 C18           -2.1758    -2.7861    -0.6901 C.ar    
  19 C19           -1.2481    -1.7997    -0.4299 C.ar    
  20 C20           -2.8962    -4.7685    -1.9802 C.ar    
  21 C21           -4.2083    -4.3593    -2.2236 C.ar    
  22 C22           -4.5375    -2.8917    -2.2119 C.3     
  23 C23           -4.6290    -2.3529    -0.7867 C.3     
  24 C24           -3.4716    -2.8711     0.0627 C.3     
  25 C25           -2.5671    -6.1184    -2.0344 C.ar    
  26 C26           -3.5482    -7.0508    -2.3111 C.ar    
  27 C27           -4.8514    -6.6429    -2.5312 C.ar    
  28 C28           -5.1814    -5.2994    -2.4865 C.ar    
  29 C29            7.4474     4.2432     0.4890 C.3     
  30 C30            7.9599     4.5940    -0.9100 C.3     
  31 C31            7.5651     6.0064    -1.2935 C.3     
  32 C32            6.0776     6.2049    -1.5084 C.3     
  33 C33            5.3108     6.0723    -0.1841 C.3     
  34 N34            8.2671     6.3663    -2.5327 N.3     
  35 C35            8.0325     7.7795    -2.8815 C.3     
  36 C36            9.4138     8.4589    -2.9905 C.3     
  37 C37           10.3698     7.2663    -3.2562 C.3     
  38 C38            9.7234     6.1500    -2.3985 C.3     
  39 H39            3.8578    -2.0725    -1.7762 H       
  40 H40            2.3894    -2.8839    -1.8659 H       
  41 H41            1.3784     2.9157     0.2604 H       
  42 H42            2.9146     4.8374    -0.3133 H       
  43 H43            4.2483     0.8848     0.6408 H       
  44 H44            6.5588     1.7183     0.8352 H       
  45 H45           -1.4403    -1.0289     0.3018 H       
  46 H46           -3.7610    -2.3477    -2.7495 H       
  47 H47           -5.4926    -2.7365    -2.7137 H       
  48 H48           -4.5960    -1.2637    -0.8121 H       
  49 H49           -5.5715    -2.6724    -0.3422 H       
  50 H50           -3.6619    -3.9099     0.3324 H       
  51 H51           -3.3981    -2.2734     0.9713 H       
  52 H52           -1.5496    -6.4363    -1.8613 H       
  53 H53           -3.2971    -8.1002    -2.3561 H       
  54 H54           -5.6159    -7.3769    -2.7387 H       
  55 H55           -6.2011    -4.9877    -2.6584 H       
  56 H56            7.4674     5.1319     1.1199 H       
  57 H57            8.0754     3.4664     0.9251 H       
  58 H58            9.0465     4.5093    -0.9249 H       
  59 H59            7.5371     3.8953    -1.6319 H       
  60 H60            7.8938     6.6835    -0.5051 H       
  61 H61            5.9051     7.1978    -1.9238 H       
  62 H62            5.7142     5.4554    -2.2114 H       
  63 H63            4.3773     6.6319    -0.2438 H       
  64 H64            5.9209     6.4579     0.6327 H       
  65 H65            7.5111     7.8441    -3.8365 H       
  66 H66            7.4429     8.2611    -2.1014 H       
  67 H67            9.4331     9.1614    -3.8237 H       
  68 H68            9.6719     8.9592    -2.0571 H       
  69 H69           10.3722     6.9955    -4.3120 H       
  70 H70           11.3788     7.4900    -2.9098 H       
  71 H71           10.0273     6.2482    -1.3564 H       
  72 H72            9.9983     5.1681    -2.7839 H       
@<TRIPOS>BOND
   1    1    2 1
   2    1    3 2
   3    2    7 1
   4    2    5 1
   5    3    4 1
   6    3    8 1
   7    4    5 2
   8    5    6 1
   9    6   39 1
  10    6   40 1
  11    7   15 ar
  12    7   19 ar
  13    8    9 1
  14    8   41 1
  15    9   10 ar
  16    9   11 ar
  17   10   14 ar
  18   10   42 1
  19   11   12 ar
  20   11   43 1
  21   12   13 ar
  22   12   44 1
  23   13   14 ar
  24   13   29 1
  25   14   33 1
  26   15   16 ar
  27   16   17 ar
  28   17   18 ar
  29   17   20 1
  30   18   19 ar
  31   18   24 1
  32   19   45 1
  33   20   21 ar
  34   20   25 ar
  35   21   22 1
  36   21   28 ar
  37   22   23 1
  38   22   46 1
  39   22   47 1
  40   23   24 1
  41   23   48 1
  42   23   49 1
  43   24   50 1
  44   24   51 1
  45   25   26 ar
  46   25   52 1
  47   26   27 ar
  48   26   53 1
  49   27   28 ar
  50   27   54 1
  51   28   55 1
  52   29   30 1
  53   29   56 1
  54   29   57 1
  55   30   31 1
  56   30   58 1
  57   30   59 1
  58   31   32 1
  59   31   34 1
  60   31   60 1
  61   32   33 1
  62   32   61 1
  63   32   62 1
  64   33   63 1
  65   33   64 1
  66   34   35 1
  67   34   38 1
  68   35   36 1
  69   35   65 1
  70   35   66 1
  71   36   37 1
  72   36   67 1
  73   36   68 1
  74   37   38 1
  75   37   69 1
  76   37   70 1
  77   38   71 1
  78   38   72 1

#	End of record

