#	Name: ASD01915553
#	Creating user name:	WinNT
#	Creation time:	15. 06. 2019 20:05

#	Modifying user name:	WinNT
#	Modification time:	15. 06. 2019 20:05

#	Program:	/corina/corina34_cracker 3.40 0067  02.08.2006

@<TRIPOS>MOLECULE
ASD01915553
  45   48    0    0    0
SMALL
NO_CHARGES


@<TRIPOS>ATOM
   1 C1            -0.0166     1.3727     0.0096 C.2     
   2 N2             0.0021    -0.0041     0.0020 N.pl3   
   3 C3            -1.2434    -0.7807    -0.0179 C.3     
   4 C4            -2.3411     0.0067     0.6954 C.3     
   5 N5            -2.4045     1.3987     0.2637 N.am    
   6 C6            -1.2814     2.1228     0.0393 C.2     
   7 C7             1.2844     1.7904    -0.0006 C.2     
   8 C8             2.0436     0.6124    -0.0024 C.2     
   9 N9             1.2133    -0.4043     0.0045 N.2     
  10 C10            3.5482     0.5278    -0.0114 C.3     
  11 O11            4.0994     1.8461    -0.0181 O.3     
  12 C12            5.4546     1.9483    -0.0266 C.ar    
  13 O13           -1.3172     3.3272    -0.1281 O.2     
  14 C14            6.0572     3.1979    -0.0334 C.ar    
  15 C15            6.2377     0.8031    -0.0229 C.ar    
  16 C16            7.6150     0.9096    -0.0317 C.ar    
  17 C17            8.2131     2.1561    -0.0442 C.ar    
  18 C18            7.4349     3.2990    -0.0422 C.ar    
  19 C19           -3.6560     2.0010     0.0763 C.ar    
  20 C20           -4.2786     1.9438    -1.1686 C.ar    
  21 C21           -5.5160     2.5401    -1.3490 C.ar    
  22 C22           -6.1309     3.1911    -0.2933 C.ar    
  23 C23           -5.5117     3.2478     0.9441 C.ar    
  24 C24           -4.2798     2.6503     1.1315 C.ar    
  25 F25           -7.3374     3.7727    -0.4706 F       
  26 O26           -3.6730     1.3043    -2.2045 O.3     
  27 C27           -4.3700     1.2855    -3.4519 C.3     
  28 H28           -1.5404    -0.9655    -1.0502 H       
  29 H29           -1.0875    -1.7314     0.4921 H       
  30 H30           -3.3017    -0.4681     0.4955 H       
  31 H31           -2.1536    -0.0209     1.7688 H       
  32 H32            1.6485     2.8071    -0.0066 H       
  33 H33            3.8876    -0.0035     0.8778 H       
  34 H34            3.8767    -0.0079    -0.9021 H       
  35 H35            5.4497     4.0908    -0.0322 H       
  36 H36            5.7710    -0.1708    -0.0128 H       
  37 H37            8.2251     0.0184    -0.0284 H       
  38 H38            9.2901     2.2373    -0.0511 H       
  39 H39            7.9044     4.2715    -0.0524 H       
  40 H40           -6.0006     2.4975    -2.3132 H       
  41 H41           -5.9943     3.7569     1.7653 H       
  42 H42           -3.7991     2.6956     2.0976 H       
  43 H43           -3.7781     0.7452    -4.1907 H       
  44 H44           -5.3318     0.7889    -3.3232 H       
  45 H45           -4.5318     2.3080    -3.7932 H       
@<TRIPOS>BOND
   1    1    2 1
   2    1    7 2
   3    1    6 1
   4    2    3 1
   5    2    9 1
   6    3    4 1
   7    3   28 1
   8    3   29 1
   9    4    5 1
  10    4   30 1
  11    4   31 1
  12    5    6 am
  13    5   19 1
  14    6   13 2
  15    7    8 1
  16    7   32 1
  17    8    9 2
  18    8   10 1
  19   10   11 1
  20   10   33 1
  21   10   34 1
  22   11   12 1
  23   12   14 ar
  24   12   15 ar
  25   14   18 ar
  26   14   35 1
  27   15   16 ar
  28   15   36 1
  29   16   17 ar
  30   16   37 1
  31   17   18 ar
  32   17   38 1
  33   18   39 1
  34   19   20 ar
  35   19   24 ar
  36   20   21 ar
  37   20   26 1
  38   21   22 ar
  39   21   40 1
  40   22   23 ar
  41   22   25 1
  42   23   24 ar
  43   23   41 1
  44   24   42 1
  45   26   27 1
  46   27   43 1
  47   27   44 1
  48   27   45 1

#	End of record

