#	Name: ASD00311263
#	Creating user name:	WinNT
#	Creation time:	15. 06. 2019 18:34

#	Modifying user name:	WinNT
#	Modification time:	15. 06. 2019 18:34

#	Program:	/corina/corina34_cracker 3.40 0067  02.08.2006

@<TRIPOS>MOLECULE
ASD00311263
  37   40    0    0    0
SMALL
NO_CHARGES


@<TRIPOS>ATOM
   1 C1            -0.0167     1.3779     0.0096 C.2     
   2 C2             0.0021    -0.0041     0.0020 C.2     
   3 C3             1.2589    -0.6766    -0.0140 C.2     
   4 C4             2.4315     0.0675    -0.0217 C.2     
   5 C5             2.3574     1.4754    -0.0134 C.2     
   6 N6             1.1649     2.0906     0.0022 N.am    
   7 C7            -1.3431    -0.5749     0.0123 C.2     
   8 C8            -2.3222     0.3255     0.0268 C.2     
   9 S9            -1.6795     1.9560     0.0358 S.3     
  10 O10            3.3823     2.1375    -0.0200 O.2     
  11 C11            3.7477    -0.6117    -0.0379 C.ar    
  12 C12            4.5930    -0.4743    -1.1387 C.ar    
  13 C13            5.8179    -1.1095    -1.1479 C.ar    
  14 C14            6.2080    -1.8815    -0.0682 C.ar    
  15 C15            5.3737    -2.0220     1.0264 C.ar    
  16 C16            4.1491    -1.3867     1.0501 C.ar    
  17 C17           -1.5955    -2.0356     0.0070 C.ar    
  18 C18           -2.4696    -2.5971     0.9370 C.ar    
  19 C19           -2.7026    -3.9565     0.9289 C.ar    
  20 C20           -2.0677    -4.7655    -0.0033 C.ar    
  21 C21           -1.1966    -4.2100    -0.9303 C.ar    
  22 C22           -0.9639    -2.8505    -0.9318 C.ar    
  23 O23           -2.2992    -6.1049    -0.0082 O.3     
  24 O24            1.3089    -2.0290    -0.0214 O.3     
  25 H25            1.1327     3.0600     0.0077 H       
  26 H26           -3.3747     0.0836     0.0356 H       
  27 H27            4.2894     0.1278    -1.9823 H       
  28 H28            6.4732    -1.0042    -1.9999 H       
  29 H29            7.1677    -2.3768    -0.0800 H       
  30 H30            5.6837    -2.6263     1.8662 H       
  31 H31            3.5007    -1.4932     1.9072 H       
  32 H32           -2.9633    -1.9682     1.6631 H       
  33 H33           -3.3795    -4.3920     1.6490 H       
  34 H34           -0.7037    -4.8424    -1.6539 H       
  35 H35           -0.2897    -2.4182    -1.6564 H       
  36 H36           -3.0387    -6.3742    -0.5702 H       
  37 H37            2.2062    -2.3894    -0.0322 H       
@<TRIPOS>BOND
   1    1    2 2
   2    1    6 1
   3    1    9 1
   4    2    3 1
   5    2    7 1
   6    3    4 2
   7    3   24 1
   8    4    5 1
   9    4   11 1
  10    5    6 am
  11    5   10 2
  12    6   25 1
  13    7    8 2
  14    7   17 1
  15    8    9 1
  16    8   26 1
  17   11   12 ar
  18   11   16 ar
  19   12   13 ar
  20   12   27 1
  21   13   14 ar
  22   13   28 1
  23   14   15 ar
  24   14   29 1
  25   15   16 ar
  26   15   30 1
  27   16   31 1
  28   17   18 ar
  29   17   22 ar
  30   18   19 ar
  31   18   32 1
  32   19   20 ar
  33   19   33 1
  34   20   21 ar
  35   20   23 1
  36   21   22 ar
  37   21   34 1
  38   22   35 1
  39   23   36 1
  40   24   37 1

#	End of record

