#	Name: ASD01913373
#	Creating user name:	WinNT
#	Creation time:	15. 06. 2019 20:01

#	Modifying user name:	WinNT
#	Modification time:	15. 06. 2019 20:01

#	Program:	/corina/corina34_cracker 3.40 0067  02.08.2006

@<TRIPOS>MOLECULE
ASD01913373
  37   39    0    0    0
SMALL
NO_CHARGES


@<TRIPOS>ATOM
   1 C1            -0.0167     1.3789     0.0096 C.2     
   2 C2             0.0021    -0.0041     0.0020 C.2     
   3 C3             1.2506    -0.6673    -0.0135 C.2     
   4 N4             2.3633     0.0254    -0.0199 N.2     
   5 C5             2.3484     1.3645    -0.0126 C.2     
   6 N6             1.1653     2.0483     0.0019 N.pl3   
   7 N7             3.3232     2.2675    -0.0171 N.2     
   8 C8             2.8045     3.4879    -0.0060 C.2     
   9 N9             1.4952     3.4102     0.0058 N.2     
  10 C10           -1.2202    -0.7502     0.0101 C.1     
  11 C11           -2.2222    -1.3619     0.0168 C.1     
  12 C12           -3.4444    -2.1080     0.0249 C.ar    
  13 C13           -3.4134    -3.5048     0.0171 C.ar    
  14 C14           -4.5956    -4.2184     0.0255 C.ar    
  15 C15           -5.8469    -2.1647     0.0548 C.ar    
  16 C16           -4.6728    -1.4418     0.0466 C.ar    
  17 C17           -5.8118    -3.5498     0.0417 C.ar    
  18 C18            3.5984     4.7689    -0.0069 C.3     
  19 C19            5.0931     4.4425    -0.0232 C.3     
  20 C20            3.2419     5.5890    -1.2484 C.3     
  21 C21            3.2662     5.5756     1.2499 C.3     
  22 F22           -4.5684    -5.5691     0.0176 F       
  23 F23           -6.9658    -4.2523     0.0498 F       
  24 H24           -0.9534     1.9164     0.0170 H       
  25 H25            1.2876    -1.7467    -0.0196 H       
  26 H26           -2.4671    -4.0252     0.0042 H       
  27 H27           -6.7963    -1.6501     0.0719 H       
  28 H28           -4.7023    -0.3622     0.0572 H       
  29 H29            5.3298     3.8677    -0.9186 H       
  30 H30            5.6673     5.3690    -0.0238 H       
  31 H31            5.3471     3.8582     0.8613 H       
  32 H32            2.1771     5.8215    -1.2368 H       
  33 H33            3.8161     6.5154    -1.2490 H       
  34 H34            3.4786     5.0142    -2.1438 H       
  35 H35            3.5202     4.9914     2.1344 H       
  36 H36            3.8404     6.5021     1.2493 H       
  37 H37            2.2013     5.8081     1.2615 H       
@<TRIPOS>BOND
   1    1    2 2
   2    1    6 1
   3    1   24 1
   4    2    3 1
   5    2   10 1
   6    3    4 2
   7    3   25 1
   8    4    5 1
   9    5    6 1
  10    5    7 2
  11    6    9 1
  12    7    8 1
  13    8    9 2
  14    8   18 1
  15   10   11 3
  16   11   12 1
  17   12   13 ar
  18   12   16 ar
  19   13   14 ar
  20   13   26 1
  21   14   17 ar
  22   14   22 1
  23   15   16 ar
  24   15   17 ar
  25   15   27 1
  26   16   28 1
  27   17   23 1
  28   18   19 1
  29   18   20 1
  30   18   21 1
  31   19   29 1
  32   19   30 1
  33   19   31 1
  34   20   32 1
  35   20   33 1
  36   20   34 1
  37   21   35 1
  38   21   36 1
  39   21   37 1

#	End of record

