#	Name: ASD01910159
#	Creating user name:	WinNT
#	Creation time:	15. 06. 2019 19:55

#	Modifying user name:	WinNT
#	Modification time:	15. 06. 2019 19:55

#	Program:	/corina/corina34_cracker 3.40 0067  02.08.2006

@<TRIPOS>MOLECULE
ASD01910159
  45   47    0    0    0
SMALL
NO_CHARGES


@<TRIPOS>ATOM
   1 C1             0.0591     1.2726     0.1428 C.ar    
   2 C2            -1.0327     1.6726    -0.6013 C.ar    
   3 C3            -0.9564     2.8168    -1.4001 C.ar    
   4 C4             0.2251     3.5545    -1.4438 C.ar    
   5 C5             1.3229     3.1450    -0.6897 C.ar    
   6 C6             1.2328     1.9992     0.1040 C.ar    
   7 C7             2.5805     3.9211    -0.7302 C.2     
   8 N8             3.6414     3.5237    -0.0002 N.am    
   9 C9             4.8598     4.2012    -0.1111 C.ar    
  10 C10            4.8754     5.5755    -0.3007 C.ar    
  11 C11            6.0866     6.2442    -0.4098 C.ar    
  12 C12            7.2790     5.5360    -0.3289 C.ar    
  13 C13            7.2600     4.1673    -0.1399 C.ar    
  14 C14            6.0562     3.4995    -0.0257 C.ar    
  15 N15            6.1067     7.6293    -0.6015 N.am    
  16 C16            7.0749     8.3744    -0.0323 C.2     
  17 C17            7.0389     9.8444    -0.1491 C.ar    
  18 C18            6.0034    10.4684    -0.8486 C.ar    
  19 C19            5.9757    11.8424    -0.9541 C.ar    
  20 C20            6.9705    12.6084    -0.3694 C.ar    
  21 C21            8.0004    12.0043     0.3247 C.ar    
  22 C22            8.0408    10.6236     0.4462 C.ar    
  23 O23            9.0516    10.0289     1.1281 O.3     
  24 C24           10.0431    10.8865     1.6969 C.3     
  25 O25            2.6576     4.9176    -1.4220 O.2     
  26 O26            7.9780     7.8348     0.5775 O.2     
  27 C27           -2.0895     3.2300    -2.1722 C.1     
  28 N28           -2.9883     3.5577    -2.7847 N.1     
  29 H29           -0.0065     0.3900     0.7617 H       
  30 H30           -1.9477     1.0998    -0.5664 H       
  31 H31            0.2896     4.4393    -2.0597 H       
  32 H32            2.0831     1.6808     0.6890 H       
  33 H33            3.5599     2.7677     0.6021 H       
  34 H34            3.9470     6.1237    -0.3637 H       
  35 H35            8.2219     6.0557    -0.4140 H       
  36 H36            8.1884     3.6191    -0.0773 H       
  37 H37            6.0447     2.4297     0.1222 H       
  38 H38            5.4238     8.0539    -1.1440 H       
  39 H39            5.2258     9.8751    -1.3065 H       
  40 H40            5.1748    12.3239    -1.4955 H       
  41 H41            6.9409    13.6844    -0.4570 H       
  42 H42            8.7728    12.6084     0.7773 H       
  43 H43           10.5228    11.4623     0.9054 H       
  44 H44            9.5716    11.5665     2.4063 H       
  45 H45           10.7912    10.2846     2.2128 H       
@<TRIPOS>BOND
   1    1    2 ar
   2    1    6 ar
   3    1   29 1
   4    2    3 ar
   5    2   30 1
   6    3    4 ar
   7    3   27 1
   8    4    5 ar
   9    4   31 1
  10    5    6 ar
  11    5    7 1
  12    6   32 1
  13    7    8 am
  14    7   25 2
  15    8    9 1
  16    8   33 1
  17    9   10 ar
  18    9   14 ar
  19   10   11 ar
  20   10   34 1
  21   11   12 ar
  22   11   15 1
  23   12   13 ar
  24   12   35 1
  25   13   14 ar
  26   13   36 1
  27   14   37 1
  28   15   16 am
  29   15   38 1
  30   16   17 1
  31   16   26 2
  32   17   18 ar
  33   17   22 ar
  34   18   19 ar
  35   18   39 1
  36   19   20 ar
  37   19   40 1
  38   20   21 ar
  39   20   41 1
  40   21   22 ar
  41   21   42 1
  42   22   23 1
  43   23   24 1
  44   24   43 1
  45   24   44 1
  46   24   45 1
  47   27   28 3

#	End of record

