#	Name: ASD03091677
#	Creating user name:	WinNT
#	Creation time:	15. 06. 2019 20:31

#	Modifying user name:	WinNT
#	Modification time:	15. 06. 2019 20:31

#	Program:	/corina/corina34_cracker 3.40 0067  02.08.2006

@<TRIPOS>MOLECULE
ASD03091677
  49   52    0    0    0
SMALL
NO_CHARGES


@<TRIPOS>ATOM
   1 C1            -0.0170     1.3990     0.0097 C.ar    
   2 C2            -1.2302     2.0682     0.0306 C.ar    
   3 C3            -2.4113     1.3476     0.0434 C.ar    
   4 C4            -2.3921    -0.0379     0.0355 C.ar    
   5 C5            -1.1921    -0.7189     0.0148 C.ar    
   6 C6             0.0021    -0.0041     0.0020 C.ar    
   7 O7             1.1634     2.0662     0.0020 O.3     
   8 C8             2.2625     1.4579     0.6803 C.3     
   9 N9             2.4083     0.0563     0.2863 N.am    
  10 C10            1.3145    -0.6822    -0.0142 C.2     
  11 C11           -3.6890    -0.8053     0.0500 C.3     
  12 C12           -4.2048    -0.9467    -1.3589 C.ar    
  13 C13           -5.0431     0.0199    -1.8856 C.ar    
  14 C14           -3.8333    -2.0396    -2.1218 C.ar    
  15 C15           -4.3014    -2.1750    -3.4123 C.ar    
  16 C16           -5.1523    -1.2062    -3.9482 C.ar    
  17 C17           -5.5189    -0.1032    -3.1745 C.ar    
  18 O18            1.4088    -1.8632    -0.2876 O.2     
  19 C19            3.7407    -0.5489     0.2168 C.3     
  20 C20            4.0068    -1.0789    -1.2073 C.3     
  21 O21            4.7851    -0.1406    -1.9528 O.3     
  22 C22           -5.6421    -1.3403    -5.2871 C.1     
  23 F23           -1.2596     3.4188     0.0388 F       
  24 C24           -3.7303     2.0760     0.0668 C.3     
  25 C25            3.8180    -1.7628     1.1592 C.3     
  26 C26            4.1284    -2.9882     0.2749 C.3     
  27 C27            4.8043    -2.3875    -0.9827 C.3     
  28 N28           -6.0306    -1.4467    -6.3493 N.1     
  29 H29           -1.1796    -1.7988     0.0090 H       
  30 H30            3.1777     1.9963     0.4343 H       
  31 H31            2.0941     1.5120     1.7559 H       
  32 H32           -3.5212    -1.7943     0.4764 H       
  33 H33           -4.4217    -0.2691     0.6531 H       
  34 H34           -5.3259     0.8726    -1.2860 H       
  35 H35           -3.1751    -2.7881    -1.7061 H       
  36 H36           -4.0101    -3.0282    -4.0070 H       
  37 H37           -6.1735     0.6518    -3.5842 H       
  38 H38            4.4986     0.1851     0.4906 H       
  39 H39            3.0670    -1.2856    -1.7192 H       
  40 H40            5.0310    -0.4474    -2.8362 H       
  41 H41           -4.0632     2.2577    -0.9551 H       
  42 H42           -4.4712     1.4696     0.5879 H       
  43 H43           -3.6107     3.0277     0.5846 H       
  44 H44            4.6140    -1.6183     1.8897 H       
  45 H45            2.8642    -1.9017     1.6682 H       
  46 H46            4.8109    -3.6658     0.7879 H       
  47 H47            3.2082    -3.5054     0.0032 H       
  48 H48            4.6964    -3.0569    -1.8361 H       
  49 H49            5.8552    -2.1713    -0.7904 H       
@<TRIPOS>BOND
   1    1    6 ar
   2    1    7 1
   3    1    2 ar
   4    2    3 ar
   5    2   23 1
   6    3    4 ar
   7    3   24 1
   8    4    5 ar
   9    4   11 1
  10    5    6 ar
  11    5   29 1
  12    6   10 1
  13    7    8 1
  14    8    9 1
  15    8   30 1
  16    8   31 1
  17    9   10 am
  18    9   19 1
  19   10   18 2
  20   11   12 1
  21   11   32 1
  22   11   33 1
  23   12   14 ar
  24   12   13 ar
  25   13   17 ar
  26   13   34 1
  27   14   15 ar
  28   14   35 1
  29   15   16 ar
  30   15   36 1
  31   16   22 1
  32   16   17 ar
  33   17   37 1
  34   19   25 1
  35   19   20 1
  36   19   38 1
  37   20   21 1
  38   20   27 1
  39   20   39 1
  40   21   40 1
  41   22   28 3
  42   24   41 1
  43   24   42 1
  44   24   43 1
  45   25   26 1
  46   25   44 1
  47   25   45 1
  48   26   27 1
  49   26   46 1
  50   26   47 1
  51   27   48 1
  52   27   49 1

#	End of record

