#	Name: ASD09740566
#	Creating user name:	WinNT
#	Creation time:	15. 06. 2019 21:23

#	Modifying user name:	WinNT
#	Modification time:	15. 06. 2019 21:23

#	Program:	/corina/corina34_cracker 3.40 0067  02.08.2006

@<TRIPOS>MOLECULE
ASD09740566
  64   68    0    0    0
SMALL
NO_CHARGES


@<TRIPOS>ATOM
   1 N1            -0.0151     1.3053     0.0121 N.2     
   2 C2             0.0028    -0.0042     0.0021 C.2     
   3 C3             1.1361     1.9169    -0.0038 C.2     
   4 S4             2.4286     0.7206    -0.0357 S.3     
   5 C5             1.2290    -0.5707    -0.0239 C.2     
   6 C6             1.3265     3.3822     0.0030 C.ar    
   7 C7             0.2203     4.2281     0.0287 C.ar    
   8 C8             2.6171     3.9195    -0.0106 C.ar    
   9 C9             2.8006     5.2854    -0.0039 C.ar    
  10 C10            1.7059     6.1376     0.0168 C.ar    
  11 C11            0.4060     5.6096     0.0354 C.ar    
  12 O12            1.8923     7.4813     0.0242 O.3     
  13 C13            3.2384     7.9489     0.1309 C.3     
  14 C14            3.8767     7.9873    -1.2590 C.3     
  15 C15            3.2435     9.3553     0.7335 C.3     
  16 C16           -0.7257     6.4867     0.0564 C.1     
  17 N17           -1.6236     7.1825     0.0729 N.1     
  18 C18            1.5148    -2.0206    -0.0398 C.ar    
  19 C19            2.3963    -2.5499    -0.9869 C.ar    
  20 C20            2.6587    -3.9044    -0.9964 C.ar    
  21 C21            2.0487    -4.7337    -0.0682 C.ar    
  22 C22            1.1758    -4.2152     0.8703 C.ar    
  23 C23            0.9096    -2.8621     0.8940 C.ar    
  24 C24            3.1773    -1.8678    -2.0894 C.3     
  25 C25            4.2739    -2.8771    -2.4909 C.3     
  26 C26            3.6352    -4.2288    -2.1070 C.3     
  27 N27            2.9275    -4.8009    -3.2551 N.am    
  28 C28            2.7363    -6.1327    -3.3335 C.2     
  29 N29            2.0852    -6.6590    -4.3897 N.am    
  30 O30            3.1512    -6.8594    -2.4514 O.2     
  31 C31            1.5342    -5.8998    -5.5217 C.3     
  32 C32            0.8598    -6.9145    -6.4690 C.3     
  33 C33            0.5748    -8.1226    -5.5381 C.3     
  34 C34            1.8132    -8.0920    -4.6044 C.3     
  35 N35            0.5255    -9.3761    -6.3025 N.3     
  36 H36           -0.9029    -0.5924     0.0141 H       
  37 H37           -0.7776     3.8153     0.0430 H       
  38 H38            3.4736     3.2617    -0.0260 H       
  39 H39            3.8003     5.6940    -0.0144 H       
  40 H40            3.8068     7.2764     0.7733 H       
  41 H41            3.3083     8.6599    -1.9014 H       
  42 H42            4.9035     8.3440    -1.1777 H       
  43 H43            3.8730     6.9854    -1.6883 H       
  44 H44            2.7888     9.3279     1.7237 H       
  45 H45            4.2703     9.7119     0.8149 H       
  46 H46            2.6751    10.0278     0.0911 H       
  47 H47            2.2566    -5.7935    -0.0785 H       
  48 H48            0.7054    -4.8700     1.5889 H       
  49 H49            0.2280    -2.4567     1.6272 H       
  50 H50            2.5274    -1.6575    -2.9389 H       
  51 H51            3.6279    -0.9468    -1.7197 H       
  52 H52            4.4695    -2.8312    -3.5622 H       
  53 H53            5.1870    -2.7043    -1.9213 H       
  54 H54            4.3986    -4.9199    -1.7496 H       
  55 H55            2.5965    -4.2212    -3.9588 H       
  56 H56            0.7973    -5.1814    -5.1627 H       
  57 H57            2.3367    -5.3805    -6.0455 H       
  58 H58           -0.0692    -6.5091    -6.8701 H       
  59 H59            1.5369    -7.1994    -7.2742 H       
  60 H60           -0.3467    -7.9735    -4.9755 H       
  61 H61            2.6628    -8.5770    -5.0850 H       
  62 H62            1.5850    -8.5776    -3.6556 H       
  63 H63            0.3402   -10.1618    -5.6971 H       
  64 H64           -0.1575    -9.3214    -7.0432 H       
@<TRIPOS>BOND
   1    1    2 1
   2    1    3 2
   3    2    5 2
   4    2   36 1
   5    3    4 1
   6    3    6 1
   7    4    5 1
   8    5   18 1
   9    6    7 ar
  10    6    8 ar
  11    7   11 ar
  12    7   37 1
  13    8    9 ar
  14    8   38 1
  15    9   10 ar
  16    9   39 1
  17   10   11 ar
  18   10   12 1
  19   11   16 1
  20   12   13 1
  21   13   14 1
  22   13   15 1
  23   13   40 1
  24   14   41 1
  25   14   42 1
  26   14   43 1
  27   15   44 1
  28   15   45 1
  29   15   46 1
  30   16   17 3
  31   18   19 ar
  32   18   23 ar
  33   19   20 ar
  34   19   24 1
  35   20   21 ar
  36   20   26 1
  37   21   22 ar
  38   21   47 1
  39   22   23 ar
  40   22   48 1
  41   23   49 1
  42   24   25 1
  43   24   50 1
  44   24   51 1
  45   25   26 1
  46   25   52 1
  47   25   53 1
  48   26   27 1
  49   26   54 1
  50   27   28 am
  51   27   55 1
  52   28   29 am
  53   28   30 2
  54   29   31 1
  55   29   34 1
  56   31   32 1
  57   31   56 1
  58   31   57 1
  59   32   33 1
  60   32   58 1
  61   32   59 1
  62   33   34 1
  63   33   35 1
  64   33   60 1
  65   34   61 1
  66   34   62 1
  67   35   63 1
  68   35   64 1

#	End of record

