#	Name: ASD05473005
#	Creating user name:	WinNT
#	Creation time:	15. 06. 2019 21:00

#	Modifying user name:	WinNT
#	Modification time:	15. 06. 2019 21:00

#	Program:	/corina/corina34_cracker 3.40 0067  02.08.2006

@<TRIPOS>MOLECULE
ASD05473005
  40   42    0    0    0
SMALL
NO_CHARGES


@<TRIPOS>ATOM
   1 C1            -0.0167     1.3831     0.0096 C.ar    
   2 C2             0.0021    -0.0041     0.0020 C.ar    
   3 C3             1.1866    -0.6850    -0.0125 C.ar    
   4 C4             2.3937     0.0183    -0.0203 C.ar    
   5 C5             2.3752     1.4236    -0.0131 C.ar    
   6 C6             1.1624     2.0981     0.0022 C.ar    
   7 N7             3.6978    -0.3599    -0.0349 N.2     
   8 C8             4.4592     0.6952    -0.0370 C.2     
   9 N9             3.6970     1.8219    -0.0239 N.pl3   
  10 C10            5.9659     0.6723    -0.0518 C.3     
  11 C11            6.4747    -0.1692     1.1204 C.3     
  12 C12            6.0459    -1.6251     0.9270 C.3     
  13 C13            7.9786    -0.0920     1.1787 C.ar    
  14 C14            8.6015     0.4100     2.3061 C.ar    
  15 C15            9.9807     0.4811     2.3602 C.ar    
  16 C16           10.7380     0.0496     1.2857 C.ar    
  17 C17           10.1141    -0.4527     0.1576 C.ar    
  18 C18            8.7349    -0.5285     0.1070 C.ar    
  19 Cl19          12.4704     0.1391     1.3526 Cl      
  20 C20            6.4397    -2.4299     2.1387 C.2     
  21 O21            7.0053    -1.8940     3.0622 O.2     
  22 O22            6.1621    -3.7421     2.1921 O.3     
  23 C23           -1.2971    -0.7677     0.0104 C.3     
  24 F24           -2.3674     0.1331     0.0255 F       
  25 F25           -1.3759    -1.5664    -1.1355 F       
  26 F26           -1.3540    -1.5787     1.1489 F       
  27 H27           -0.9613     1.9066     0.0170 H       
  28 H28            1.1898    -1.7649    -0.0177 H       
  29 H29            1.1421     3.1779     0.0079 H       
  30 H30            4.0221     2.7359    -0.0225 H       
  31 H31            6.3135     0.2376    -0.9890 H       
  32 H32            6.3457     1.6899     0.0397 H       
  33 H33            6.0549     0.2127     2.0510 H       
  34 H34            4.9648    -1.6711     0.7960 H       
  35 H35            6.5366    -2.0342     0.0439 H       
  36 H36            8.0102     0.7471     3.1447 H       
  37 H37           10.4672     0.8736     3.2409 H       
  38 H38           10.7047    -0.7897    -0.6814 H       
  39 H39            8.2477    -0.9206    -0.7735 H       
  40 H40            6.4342    -4.2163     2.9897 H       
@<TRIPOS>BOND
   1    1    2 ar
   2    1    6 ar
   3    1   27 1
   4    2    3 ar
   5    2   23 1
   6    3    4 ar
   7    3   28 1
   8    4    5 ar
   9    4    7 1
  10    5    6 ar
  11    5    9 1
  12    6   29 1
  13    7    8 2
  14    8    9 1
  15    8   10 1
  16    9   30 1
  17   10   11 1
  18   10   31 1
  19   10   32 1
  20   11   12 1
  21   11   13 1
  22   11   33 1
  23   12   20 1
  24   12   34 1
  25   12   35 1
  26   13   14 ar
  27   13   18 ar
  28   14   15 ar
  29   14   36 1
  30   15   16 ar
  31   15   37 1
  32   16   17 ar
  33   16   19 1
  34   17   18 ar
  35   17   38 1
  36   18   39 1
  37   20   21 2
  38   20   22 1
  39   22   40 1
  40   23   24 1
  41   23   25 1
  42   23   26 1

#	End of record

