#	Name: ASD00192047
#	Creating user name:	WinNT
#	Creation time:	15. 06. 2019 18:33

#	Modifying user name:	WinNT
#	Modification time:	15. 06. 2019 18:33

#	Program:	/corina/corina34_cracker 3.40 0067  02.08.2006

@<TRIPOS>MOLECULE
ASD00192047
  36   38    0    0    0
SMALL
NO_CHARGES


@<TRIPOS>ATOM
   1 N1            -0.0157     1.3046     0.0092 N.ar    
   2 C2             0.0021    -0.0041     0.0020 C.ar    
   3 C3             1.2127    -0.7187    -0.0129 C.ar    
   4 C4             2.4217    -0.0117    -0.0206 C.ar    
   5 C5             2.3737     1.3978    -0.0131 C.ar    
   6 C6             3.5410     2.1727    -0.0204 C.ar    
   7 C7             3.4495     3.5327    -0.0130 C.ar    
   8 C8             2.2082     4.1624     0.0018 C.ar    
   9 C9             1.0545     3.4385     0.0092 C.ar    
  10 C10            1.1091     2.0354     0.0024 C.ar    
  11 C11            2.8229    -2.1751    -0.0346 C.2     
  12 N12            1.5281    -2.0370    -0.0221 N.2     
  13 N13            3.4187    -0.9521    -0.0343 N.pl3   
  14 O14           -1.2647     1.9716     0.0187 O.3     
  15 C15            3.5527    -3.4935    -0.0466 C.3     
  16 C16            3.0864    -4.3454     1.1357 C.3     
  17 C17            3.8274    -5.6839     1.1235 C.3     
  18 C18            3.3611    -6.5357     2.3058 C.3     
  19 C19            4.1021    -7.8743     2.2937 C.3     
  20 H20           -0.9321    -0.5459     0.0080 H       
  21 H21            4.5093     1.6945    -0.0315 H       
  22 H22            4.3503     4.1284    -0.0183 H       
  23 H23            2.1592     5.2412     0.0078 H       
  24 H24            0.0995     3.9427     0.0204 H       
  25 H25            4.3728    -0.7778    -0.0425 H       
  26 H26            3.3405    -4.0178    -0.9783 H       
  27 H27            4.6251    -3.3159     0.0342 H       
  28 H28            3.2987    -3.8210     2.0674 H       
  29 H29            2.0140    -4.5230     1.0549 H       
  30 H30            3.6151    -6.2082     0.1918 H       
  31 H31            4.8998    -5.5063     1.2043 H       
  32 H32            3.5733    -6.0114     3.2375 H       
  33 H33            2.2887    -6.7134     2.2250 H       
  34 H34            3.7698    -8.4811     3.1359 H       
  35 H35            3.8898    -8.3986     1.3619 H       
  36 H36            5.1745    -7.6966     2.3744 H       
@<TRIPOS>BOND
   1    1    2 ar
   2    1   10 ar
   3    1   14 1
   4    2    3 ar
   5    2   20 1
   6    3    4 ar
   7    3   12 1
   8    4    5 ar
   9    4   13 1
  10    5    6 ar
  11    5   10 ar
  12    6    7 ar
  13    6   21 1
  14    7    8 ar
  15    7   22 1
  16    8    9 ar
  17    8   23 1
  18    9   10 ar
  19    9   24 1
  20   11   12 2
  21   11   13 1
  22   11   15 1
  23   13   25 1
  24   15   16 1
  25   15   26 1
  26   15   27 1
  27   16   17 1
  28   16   28 1
  29   16   29 1
  30   17   18 1
  31   17   30 1
  32   17   31 1
  33   18   19 1
  34   18   32 1
  35   18   33 1
  36   19   34 1
  37   19   35 1
  38   19   36 1

#	End of record

