#	Name: ASD00170108
#	Creating user name:	WinNT
#	Creation time:	15. 06. 2019 18:31

#	Modifying user name:	WinNT
#	Modification time:	15. 06. 2019 18:31

#	Program:	/corina/corina34_cracker 3.40 0067  02.08.2006

@<TRIPOS>MOLECULE
ASD00170108
  32   33    0    0    0
SMALL
NO_CHARGES


@<TRIPOS>ATOM
   1 C1            -0.0161     1.3338     0.0094 C.2     
   2 C2             0.0021    -0.0041     0.0020 C.2     
   3 C3            -1.3321    -0.5852     0.0122 C.2     
   4 C4            -2.3227     0.3621     0.0271 C.2     
   5 S5            -1.6644     1.9335     0.0360 S.3     
   6 N6            -3.6746     0.0802     0.0390 N.pl3   
   7 Br7            1.5254     2.4291     0.0005 Br      
   8 C8            -1.5806    -1.9814     0.0067 C.2     
   9 O9            -1.6766    -2.5864     1.0581 O.2     
  10 C10            1.2470    -0.8077    -0.0154 C.ar    
  11 O11           -1.7106    -2.6389    -1.1643 O.3     
  12 C12            2.1226    -0.7653     1.0687 C.ar    
  13 C13            3.2803    -1.5163     1.0469 C.ar    
  14 C14            3.5726    -2.3099    -0.0476 C.ar    
  15 C15            2.7075    -2.3561    -1.1265 C.ar    
  16 C16            1.5445    -1.6138    -1.1139 C.ar    
  17 C17           -1.9600    -4.0443    -1.0950 C.3     
  18 C18           -2.0767    -4.6120    -2.5110 C.3     
  19 N19            4.2112    -1.4721     2.1968 N.pl3   
  20 O20            3.9552    -0.7734     3.1611 O.2     
  21 O21            5.2332    -2.1344     2.1788 O.2     
  22 H22           -3.9779    -0.8411     0.0370 H       
  23 H23           -4.3208     0.8036     0.0493 H       
  24 H24            1.8956    -0.1457     1.9237 H       
  25 H25            4.4799    -2.8956    -0.0604 H       
  26 H26            2.9410    -2.9775    -1.9783 H       
  27 H27            0.8698    -1.6509    -1.9564 H       
  28 H28           -1.1373    -4.5340    -0.5740 H       
  29 H29           -2.8897    -4.2221    -0.5545 H       
  30 H30           -2.2669    -5.6839    -2.4582 H       
  31 H31           -2.8994    -4.1223    -3.0321 H       
  32 H32           -1.1471    -4.4341    -3.0516 H       
@<TRIPOS>BOND
   1    1    2 2
   2    1    7 1
   3    1    5 1
   4    2    3 1
   5    2   10 1
   6    3    4 2
   7    3    8 1
   8    4    5 1
   9    4    6 1
  10    6   22 1
  11    6   23 1
  12    8    9 2
  13    8   11 1
  14   10   12 ar
  15   10   16 ar
  16   11   17 1
  17   12   13 ar
  18   12   24 1
  19   13   14 ar
  20   13   19 1
  21   14   15 ar
  22   14   25 1
  23   15   16 ar
  24   15   26 1
  25   16   27 1
  26   17   18 1
  27   17   28 1
  28   17   29 1
  29   18   30 1
  30   18   31 1
  31   18   32 1
  32   19   20 2
  33   19   21 2

#	End of record

