#	Name: ASD03091037
#	Creating user name:	WinNT
#	Creation time:	15. 06. 2019 20:29

#	Modifying user name:	WinNT
#	Modification time:	15. 06. 2019 20:29

#	Program:	/corina/corina34_cracker 3.40 0067  02.08.2006

@<TRIPOS>MOLECULE
ASD03091037
  58   63    0    0    0
SMALL
NO_CHARGES


@<TRIPOS>ATOM
   1 C1             0.1488     1.4725     0.0332 C.3     
   2 N2             0.0221     0.0356    -0.2226 N.am    
   3 C3            -0.0083    -0.8423     0.8272 C.2     
   4 N4            -0.1198    -2.1360     0.6728 N.2     
   5 C5            -0.2134    -2.6983    -0.5494 C.ar    
   6 C6            -0.1905    -1.8678    -1.6932 C.ar    
   7 C7            -0.0697    -0.4156    -1.4953 C.2     
   8 C8             0.0898    -0.3027     2.1998 C.ar    
   9 O9            -0.0445     0.3508    -2.4407 O.2     
  10 C10           -0.3319    -4.0825    -0.7083 C.ar    
  11 C11           -0.4241    -4.6188    -1.9603 C.ar    
  12 C12           -0.4021    -3.8036    -3.0922 C.ar    
  13 C13           -0.2856    -2.4297    -2.9642 C.ar    
  14 N14           -0.4976    -4.3770    -4.3630 N.3     
  15 C15            0.3939    -3.6996    -5.3149 C.3     
  16 C16            1.0147    -4.7077    -6.2704 C.3     
  17 C17            0.0425    -5.2299    -7.3090 C.3     
  18 N18           -1.2597    -4.5540    -7.2193 N.3     
  19 C19           -2.0591    -5.1446    -6.1351 C.3     
  20 C20           -1.8832    -4.3558    -4.8468 C.3     
  21 C21           -1.1468    -3.1112    -7.2188 C.3     
  22 C22           -0.3742    -2.5944    -6.0163 C.3     
  23 C23           -0.8892    -0.6110     3.1458 C.ar    
  24 C24           -1.2330     2.0630     0.3214 C.3     
  25 C25            1.1649     0.5126     2.5570 C.ar    
  26 C26            1.2514     1.0130     3.8400 C.ar    
  27 C27            0.2760     0.7083     4.7721 C.ar    
  28 C28           -0.7911    -0.1039     4.4261 C.ar    
  29 Cl29          -2.0104    -0.4807     5.6030 Cl      
  30 C30           -1.3123     3.5608     0.6232 C.3     
  31 C31           -1.8216     3.0221    -0.7152 C.3     
  32 H32            0.7988     1.6326     0.8934 H       
  33 H33            0.5773     1.9610    -0.8419 H       
  34 H34           -0.3500    -4.7266     0.1584 H       
  35 H35           -0.5151    -5.6887    -2.0762 H       
  36 H36           -0.2690    -1.7999    -3.8414 H       
  37 H37            1.1983    -3.2306    -4.7482 H       
  38 H38            1.8521    -4.2340    -6.7825 H       
  39 H39            1.3937    -5.5501    -5.6918 H       
  40 H40            0.4608    -5.0661    -8.3021 H       
  41 H41           -0.1005    -6.2996    -7.1565 H       
  42 H42           -3.1113    -5.1373    -6.4197 H       
  43 H43           -1.7390    -6.1738    -5.9725 H       
  44 H44           -2.5312    -4.7817    -4.0808 H       
  45 H45           -2.1799    -3.3218    -5.0227 H       
  46 H46           -0.6361    -2.7963    -8.1289 H       
  47 H47           -2.1471    -2.6783    -7.2090 H       
  48 H48           -1.0745    -2.1470    -5.3109 H       
  49 H49            0.3285    -1.8302    -6.3484 H       
  50 H50           -1.7216    -1.2443     2.8767 H       
  51 H51           -1.9242     1.4059     0.8492 H       
  52 H52            1.9278     0.7510     1.8308 H       
  53 H53            2.0830     1.6439     4.1172 H       
  54 H54            0.3487     1.1024     5.7750 H       
  55 H55           -2.0559     3.8892     1.3494 H       
  56 H56           -0.3800     4.1256     0.6165 H       
  57 H57           -1.2244     3.2326    -1.6024 H       
  58 H58           -2.9003     2.9962    -0.8696 H       
@<TRIPOS>BOND
   1    1    2 1
   2    1   24 1
   3    1   32 1
   4    1   33 1
   5    2    3 1
   6    2    7 am
   7    3    4 2
   8    3    8 1
   9    4    5 1
  10    5    6 ar
  11    5   10 ar
  12    6    7 1
  13    6   13 ar
  14    7    9 2
  15    8   23 ar
  16    8   25 ar
  17   10   11 ar
  18   10   34 1
  19   11   12 ar
  20   11   35 1
  21   12   13 ar
  22   12   14 1
  23   13   36 1
  24   14   15 1
  25   14   20 1
  26   15   16 1
  27   15   22 1
  28   15   37 1
  29   16   17 1
  30   16   38 1
  31   16   39 1
  32   17   18 1
  33   17   40 1
  34   17   41 1
  35   18   19 1
  36   18   21 1
  37   19   20 1
  38   19   42 1
  39   19   43 1
  40   20   44 1
  41   20   45 1
  42   21   22 1
  43   21   46 1
  44   21   47 1
  45   22   48 1
  46   22   49 1
  47   23   28 ar
  48   23   50 1
  49   24   30 1
  50   24   31 1
  51   24   51 1
  52   25   26 ar
  53   25   52 1
  54   26   27 ar
  55   26   53 1
  56   27   28 ar
  57   27   54 1
  58   28   29 1
  59   30   31 1
  60   30   55 1
  61   30   56 1
  62   31   57 1
  63   31   58 1

#	End of record

