#	Name: ASD01884081
#	Creating user name:	WinNT
#	Creation time:	15. 06. 2019 19:47

#	Modifying user name:	WinNT
#	Modification time:	15. 06. 2019 19:47

#	Program:	/corina/corina34_cracker 3.40 0067  02.08.2006

@<TRIPOS>MOLECULE
ASD01884081
  50   53    0    0    0
SMALL
NO_CHARGES


@<TRIPOS>ATOM
   1 C1            -0.0187     1.5258     0.0104 C.3     
   2 C2             0.0021    -0.0041     0.0020 C.3     
   3 C3             0.7421    -0.5109     1.2415 C.3     
   4 C4             2.1775     0.0187     1.2307 C.3     
   5 C5             2.1567     1.5485     1.2391 C.3     
   6 C6             1.4167     2.0553    -0.0004 C.3     
   7 O7            -0.7098     1.9991    -1.1473 O.3     
   8 N8             2.8860    -0.4666     2.4176 N.pl3   
   9 C9             4.2772    -0.5810     2.4018 C.ar    
  10 C10            4.9492    -1.0422     3.5299 C.ar    
  11 C11            6.3232    -1.1554     3.5165 C.ar    
  12 C12            7.0394    -0.8076     2.3704 C.ar    
  13 C13            6.3629    -0.3462     1.2412 C.ar    
  14 C14            4.9885    -0.2396     1.2577 C.ar    
  15 C15           10.5382    -1.9228     1.5126 C.2     
  16 C16            9.1339    -1.8312     1.5073 C.2     
  17 C17            8.5157    -0.9278     2.3533 C.2     
  18 C18            9.3093    -0.1191     3.2019 C.2     
  19 C19           10.6504    -0.2307     3.1826 C.2     
  20 N20           11.2697    -1.1204     2.3503 N.pl3   
  21 N21           11.3845    -2.6761     0.8222 N.2     
  22 C22           12.6329    -2.3868     1.1955 C.2     
  23 C23           12.5888    -1.4236     2.1420 C.2     
  24 C24           13.7707    -0.7975     2.8365 C.3     
  25 C25           14.3178     0.3467     1.9807 C.3     
  26 Cl26           8.1903    -2.8379     0.4538 Cl      
  27 Cl27           4.0569    -1.4745     4.9549 Cl      
  28 H28           -0.5289     1.8773     0.9072 H       
  29 H29           -1.0205    -0.3814     0.0098 H       
  30 H30            0.5123    -0.3556    -0.8948 H       
  31 H31            0.2319    -0.1594     2.1383 H       
  32 H32            0.7568    -1.6008     1.2356 H       
  33 H33            2.6876    -0.3328     0.3339 H       
  34 H34            1.6465     1.9000     2.1359 H       
  35 H35            3.1793     1.9258     1.2314 H       
  36 H36            1.9269     1.7038    -0.8972 H       
  37 H37            1.4019     3.1452     0.0056 H       
  38 H38           -0.7617     2.9629    -1.2077 H       
  39 H39            2.3885    -0.7085     3.2143 H       
  40 H40            6.8447    -1.5126     4.3922 H       
  41 H41            6.9152    -0.0764     0.3532 H       
  42 H42            4.4643     0.1135     0.3819 H       
  43 H43            8.8374     0.5896     3.8664 H       
  44 H44           11.2458     0.3919     3.8340 H       
  45 H45           13.5295    -2.8437     0.8031 H       
  46 H46           13.4585    -0.4090     3.8059 H       
  47 H47           14.5479    -1.5483     2.9791 H       
  48 H48           14.6299    -0.0418     1.0113 H       
  49 H49           13.5405     1.0975     1.8381 H       
  50 H50           15.1726     0.7995     2.4830 H       
@<TRIPOS>BOND
   1    1    2 1
   2    1    6 1
   3    1    7 1
   4    1   28 1
   5    2    3 1
   6    2   29 1
   7    2   30 1
   8    3    4 1
   9    3   31 1
  10    3   32 1
  11    4    5 1
  12    4    8 1
  13    4   33 1
  14    5    6 1
  15    5   34 1
  16    5   35 1
  17    6   36 1
  18    6   37 1
  19    7   38 1
  20    8    9 1
  21    8   39 1
  22    9   10 ar
  23    9   14 ar
  24   10   11 ar
  25   10   27 1
  26   11   12 ar
  27   11   40 1
  28   12   13 ar
  29   12   17 1
  30   13   14 ar
  31   13   41 1
  32   14   42 1
  33   15   16 1
  34   15   20 1
  35   15   21 2
  36   16   17 2
  37   16   26 1
  38   17   18 1
  39   18   19 2
  40   18   43 1
  41   19   20 1
  42   19   44 1
  43   20   23 1
  44   21   22 1
  45   22   23 2
  46   22   45 1
  47   23   24 1
  48   24   25 1
  49   24   46 1
  50   24   47 1
  51   25   48 1
  52   25   49 1
  53   25   50 1

#	End of record

