#	Name: ASD01900370
#	Creating user name:	WinNT
#	Creation time:	15. 06. 2019 19:51

#	Modifying user name:	WinNT
#	Modification time:	15. 06. 2019 19:51

#	Program:	/corina/corina34_cracker 3.40 0067  02.08.2006

@<TRIPOS>MOLECULE
ASD01900370
  29   31    0    0    0
SMALL
NO_CHARGES


@<TRIPOS>ATOM
   1 C1             0.0221     1.4066     0.3780 C.ar    
   2 C2             0.0580     0.0276     0.5385 C.ar    
   3 N3             1.1755    -0.6483     0.3972 N.ar    
   4 C4             2.3206    -0.0414     0.0945 C.ar    
   5 C5             2.3585     1.3548    -0.0829 C.ar    
   6 C6             1.1813     2.0880     0.0634 C.ar    
   7 C7             3.6896    -0.5154    -0.1221 C.2     
   8 N8             4.4319     0.5240    -0.3972 N.2     
   9 N9             3.6535     1.6860    -0.3825 N.pl3   
  10 N10            4.1242    -1.8425    -0.0471 N.pl3   
  11 C11            5.4836    -2.1400    -0.1677 C.ar    
  12 C12            6.4374    -1.2130     0.2332 C.ar    
  13 C13            5.8850    -3.3662    -0.6837 C.ar    
  14 C14            7.2296    -3.6569    -0.8015 C.ar    
  15 C15            8.1766    -2.7294    -0.4066 C.ar    
  16 C16            7.7807    -1.5105     0.1126 C.ar    
  17 C17            8.8162    -0.5028     0.5410 C.3     
  18 F18           10.0949    -1.0247     0.3181 F       
  19 F19            8.6568     0.6733    -0.1997 F       
  20 F20            8.6580    -0.2217     1.9023 F       
  21 H21           -0.9082     1.9427     0.4943 H       
  22 H22           -0.8516    -0.5000     0.7849 H       
  23 H23            1.1763     3.1601    -0.0663 H       
  24 H24            3.9786     2.5830    -0.5572 H       
  25 H25            3.4817    -2.5563     0.0886 H       
  26 H26            6.1289    -0.2606     0.6385 H       
  27 H27            5.1461    -4.0911    -0.9919 H       
  28 H28            7.5423    -4.6099    -1.2021 H       
  29 H29            9.2277    -2.9595    -0.4995 H       
@<TRIPOS>BOND
   1    1    2 ar
   2    1    6 ar
   3    1   21 1
   4    2    3 ar
   5    2   22 1
   6    3    4 ar
   7    4    5 ar
   8    4    7 1
   9    5    6 ar
  10    5    9 1
  11    6   23 1
  12    7    8 2
  13    7   10 1
  14    8    9 1
  15    9   24 1
  16   10   11 1
  17   10   25 1
  18   11   12 ar
  19   11   13 ar
  20   12   16 ar
  21   12   26 1
  22   13   14 ar
  23   13   27 1
  24   14   15 ar
  25   14   28 1
  26   15   16 ar
  27   15   29 1
  28   16   17 1
  29   17   18 1
  30   17   19 1
  31   17   20 1

#	End of record

