#	Name: ASD03240489
#	Creating user name:	WinNT
#	Creation time:	15. 06. 2019 20:35

#	Modifying user name:	WinNT
#	Modification time:	15. 06. 2019 20:35

#	Program:	/corina/corina34_cracker 3.40 0067  02.08.2006

@<TRIPOS>MOLECULE
ASD03240489
  23   24    0    0    0
SMALL
NO_CHARGES


@<TRIPOS>ATOM
   1 C1            -0.0167     1.3792     0.0096 C.ar    
   2 C2             0.0021    -0.0041     0.0020 C.ar    
   3 C3             1.1675     2.0878     0.0021 C.ar    
   4 C4             2.3833     1.4077    -0.0131 C.ar    
   5 C5             2.3965     0.0150    -0.0207 C.ar    
   6 C6             1.2061    -0.6841    -0.0127 C.ar    
   7 C7             3.6605     2.1649    -0.0217 C.2     
   8 C8             3.7927     3.5228    -0.0162 C.2     
   9 N9             5.1113     3.8042    -0.0271 N.pl3   
  10 N10            5.8167     2.5949    -0.0397 N.2     
  11 C11            4.9558     1.6119    -0.0309 C.2     
  12 C12            1.2188    -2.1911    -0.0208 C.3     
  13 C13            1.2367    -2.6891     1.3642 C.1     
  14 N14            1.2505    -3.0735     2.4331 N.1     
  15 H15           -0.9598     1.9054     0.0169 H       
  16 H16           -0.9269    -0.5548     0.0079 H       
  17 H17            1.1518     3.1677     0.0077 H       
  18 H18            3.3363    -0.5171    -0.0325 H       
  19 H19            2.9871     4.2420    -0.0051 H       
  20 H20            5.5034     4.6914    -0.0267 H       
  21 H21            5.1957     0.5589    -0.0369 H       
  22 H22            0.3269    -2.5591    -0.5278 H       
  23 H23            2.1067    -2.5441    -0.5454 H       
@<TRIPOS>BOND
   1    1    2 ar
   2    1    3 ar
   3    1   15 1
   4    2    6 ar
   5    2   16 1
   6    3    4 ar
   7    3   17 1
   8    4    5 ar
   9    4    7 1
  10    5    6 ar
  11    5   18 1
  12    6   12 1
  13    7    8 2
  14    7   11 1
  15    8    9 1
  16    8   19 1
  17    9   10 1
  18    9   20 1
  19   10   11 2
  20   11   21 1
  21   12   13 1
  22   12   22 1
  23   12   23 1
  24   13   14 3

#	End of record

