#	Name: ASD02500237
#	Creating user name:	WinNT
#	Creation time:	15. 06. 2019 20:22

#	Modifying user name:	WinNT
#	Modification time:	15. 06. 2019 20:22

#	Program:	/corina/corina34_cracker 3.40 0067  02.08.2006

@<TRIPOS>MOLECULE
ASD02500237
  66   70    0    0    0
SMALL
NO_CHARGES


@<TRIPOS>ATOM
   1 N1            -3.4481     4.9720     0.6503 N.ar    
   2 C2            -4.6785     5.3785     0.8478 C.ar    
   3 C3            -5.4480     4.8996     1.9060 C.ar    
   4 C4            -4.9227     3.9815     2.7700 C.ar    
   5 C5            -3.6012     3.5469     2.5545 C.ar    
   6 C6            -2.9939     2.6058     3.4009 C.ar    
   7 C7            -1.7132     2.2110     3.1592 C.ar    
   8 C8            -0.9967     2.7290     2.0826 C.ar    
   9 C9            -1.5545     3.6428     1.2422 C.ar    
  10 C10           -2.8742     4.0752     1.4588 C.ar    
  11 S11           -0.6253     4.2822    -0.1115 S.o2    
  12 O12           -0.7012     5.6981    -0.0172 O.2     
  13 O13            0.6037     3.5691    -0.1271 O.2     
  14 N14           -1.4272     3.8623    -1.4983 N.am    
  15 C15           -1.6657     2.5226    -1.7850 C.ar    
  16 C16           -2.8901     2.1356    -2.3163 C.ar    
  17 C17           -3.1274     0.8029    -2.6020 C.ar    
  18 C18           -2.1268    -0.1500    -2.3522 C.ar    
  19 C19           -0.8999     0.2555    -1.8173 C.ar    
  20 C20           -0.6741     1.5738    -1.5439 C.ar    
  21 C21           -2.3686    -1.5710    -2.6519 C.2     
  22 O22           -3.3349    -2.1368    -2.1771 O.2     
  23 N23           -1.5192    -2.2448    -3.4525 N.am    
  24 C24           -1.7837    -3.6445    -3.8143 C.3     
  25 C25           -1.7912    -3.7624    -5.3434 C.3     
  26 N26           -0.5841    -3.1105    -5.8706 N.am    
  27 C27           -0.3196    -1.7108    -5.5088 C.3     
  28 C28           -0.3150    -1.5912    -3.9842 C.3     
  29 C29            1.3565    -3.0633    -7.3676 C.ar    
  30 C30            2.3283    -3.7828    -8.0593 C.ar    
  31 C31            3.3394    -3.0942    -8.7106 C.ar    
  32 C32            3.3434    -1.7094    -8.6473 C.ar    
  33 C33            2.3447    -1.0589    -7.9406 C.ar    
  34 N34            1.3967    -1.7373    -7.3316 N.ar    
  35 C35            0.2653    -3.7843    -6.6712 C.2     
  36 O36            0.1363    -4.9832    -6.8219 O.2     
  37 C37            4.4237    -0.9192    -9.3399 C.3     
  38 F38            4.0198    -0.6226   -10.6461 F       
  39 F39            4.6519     0.2709    -8.6408 F       
  40 F40            5.6021    -1.6723    -9.3757 F       
  41 O41           -4.3207     0.4186    -3.1203 O.3     
  42 C42           -5.2900     1.4440    -3.3469 C.3     
  43 H43           -5.1071     6.1043     0.1725 H       
  44 H44           -6.4589     5.2543     2.0431 H       
  45 H45           -5.5049     3.5999     3.5958 H       
  46 H46           -3.5390     2.1976     4.2391 H       
  47 H47           -1.2468     1.4869     3.8108 H       
  48 H48            0.0180     2.4005     1.9123 H       
  49 H49           -1.7304     4.5508    -2.1106 H       
  50 H50           -3.6553     2.8739    -2.5055 H       
  51 H51           -0.1282    -0.4750    -1.6240 H       
  52 H52            0.2766     1.8825    -1.1351 H       
  53 H53           -1.0022    -4.2828    -3.4020 H       
  54 H54           -2.7533    -3.9474    -3.4193 H       
  55 H55           -1.7933    -4.8142    -5.6292 H       
  56 H56           -2.6774    -3.2701    -5.7439 H       
  57 H57            0.6501    -1.4079    -5.9039 H       
  58 H58           -1.1010    -1.0725    -5.9211 H       
  59 H59           -0.3150    -0.5386    -3.7014 H       
  60 H60            0.5734    -2.0800    -3.5843 H       
  61 H61            2.2945    -4.8619    -8.0874 H       
  62 H62            4.1070    -3.6244    -9.2547 H       
  63 H63            2.3448     0.0199    -7.8893 H       
  64 H64           -6.1958     1.0023    -3.7621 H       
  65 H65           -5.5254     1.9363    -2.4033 H       
  66 H66           -4.8880     2.1754    -4.0480 H       
@<TRIPOS>BOND
   1    1    2 ar
   2    1   10 ar
   3    2    3 ar
   4    2   43 1
   5    3    4 ar
   6    3   44 1
   7    4    5 ar
   8    4   45 1
   9    5    6 ar
  10    5   10 ar
  11    6    7 ar
  12    6   46 1
  13    7    8 ar
  14    7   47 1
  15    8    9 ar
  16    8   48 1
  17    9   10 ar
  18    9   11 1
  19   11   12 2
  20   11   13 2
  21   11   14 am
  22   14   15 1
  23   14   49 1
  24   15   16 ar
  25   15   20 ar
  26   16   17 ar
  27   16   50 1
  28   17   18 ar
  29   17   41 1
  30   18   19 ar
  31   18   21 1
  32   19   20 ar
  33   19   51 1
  34   20   52 1
  35   21   22 2
  36   21   23 am
  37   23   24 1
  38   23   28 1
  39   24   25 1
  40   24   53 1
  41   24   54 1
  42   25   26 1
  43   25   55 1
  44   25   56 1
  45   26   27 1
  46   26   35 am
  47   27   28 1
  48   27   57 1
  49   27   58 1
  50   28   59 1
  51   28   60 1
  52   29   30 ar
  53   29   34 ar
  54   29   35 1
  55   30   31 ar
  56   30   61 1
  57   31   32 ar
  58   31   62 1
  59   32   33 ar
  60   32   37 1
  61   33   34 ar
  62   33   63 1
  63   35   36 2
  64   37   38 1
  65   37   39 1
  66   37   40 1
  67   41   42 1
  68   42   64 1
  69   42   65 1
  70   42   66 1

#	End of record

