#	Name: ASD03430655
#	Creating user name:	WinNT
#	Creation time:	15. 06. 2019 20:41

#	Modifying user name:	WinNT
#	Modification time:	15. 06. 2019 20:41

#	Program:	/corina/corina34_cracker 3.40 0067  02.08.2006

@<TRIPOS>MOLECULE
ASD03430655
  58   63    0    0    0
SMALL
NO_CHARGES


@<TRIPOS>ATOM
   1 C1             0.0650     1.3476    -0.0876 C.ar    
   2 C2             0.0541    -0.0367    -0.0514 C.ar    
   3 C3             1.2408    -0.7394    -0.0306 C.ar    
   4 C4             2.4610    -0.0703    -0.0342 C.ar    
   5 C5             2.4690     1.3207    -0.0758 C.ar    
   6 C6             1.2805     2.0278    -0.1027 C.ar    
   7 O7             3.5049    -0.9464     0.0193 O.3     
   8 C8             1.5583    -2.2106    -0.0166 C.3     
   9 C9             3.0491    -2.2532    -0.3800 C.3     
  10 C10            0.3833    -3.8710     1.0713 C.ar    
  11 C11            1.2892    -2.8418     1.3170 C.ar    
  12 C12            0.7234    -2.9823    -0.9980 C.2     
  13 N13            0.0732    -3.9269    -0.2896 N.am    
  14 O14            0.6491    -2.7928    -2.1936 O.2     
  15 C15            1.7406    -2.5963     2.5942 C.ar    
  16 C16            1.2952    -3.3744     3.6485 C.ar    
  17 C17            0.3962    -4.3988     3.4160 C.ar    
  18 C18           -0.0590    -4.6490     2.1379 C.ar    
  19 O19           -0.9485     2.2622    -0.1194 O.3     
  20 C20           -0.3479     3.5147     0.2596 C.3     
  21 O21            1.0277     3.3692    -0.1448 O.3     
  22 C22           -0.8511    -4.8991    -0.8785 C.3     
  23 C23           -2.2476    -4.3326    -0.8713 C.2     
  24 C24           -3.2631    -4.6292     0.0592 C.2     
  25 C25           -4.3520    -3.9146    -0.2902 C.2     
  26 N26           -4.0460    -3.1878    -1.4024 N.pl3   
  27 C27           -2.7531    -3.4443    -1.7510 C.2     
  28 C28           -2.0184    -2.8451    -2.9224 C.3     
  29 C29           -5.6785    -3.9191     0.4250 C.3     
  30 C30           -4.9546    -2.2775    -2.1038 C.3     
  31 C31           -6.0989    -3.0792    -2.7273 C.3     
  32 C32           -5.5249    -1.2616    -1.1120 C.3     
  33 H33           -0.8863    -0.5676    -0.0391 H       
  34 H34            3.4095     1.8516    -0.0868 H       
  35 H35            3.1822    -2.3987    -1.4520 H       
  36 H36            3.5629    -3.0315     0.1842 H       
  37 H37            2.4427    -1.7955     2.7736 H       
  38 H38            1.6493    -3.1820     4.6505 H       
  39 H39            0.0491    -5.0062     4.2388 H       
  40 H40           -0.7613    -5.4510     1.9642 H       
  41 H41           -0.8165     4.3413    -0.2745 H       
  42 H42           -0.4200     3.6636     1.3370 H       
  43 H43           -0.5503    -5.1112    -1.9044 H       
  44 H44           -0.8296    -5.8200    -0.2958 H       
  45 H45           -3.1840    -5.3048     0.8980 H       
  46 H46           -1.5268    -1.9238    -2.6102 H       
  47 H47           -1.2708    -3.5519    -3.2825 H       
  48 H48           -2.7263    -2.6264    -3.7219 H       
  49 H49           -5.6478    -3.2095     1.2518 H       
  50 H50           -6.4673    -3.6326    -0.2706 H       
  51 H51           -5.8798    -4.9183     0.8110 H       
  52 H52           -4.4092    -1.7527    -2.8882 H       
  53 H53           -6.5791    -3.6849    -1.9587 H       
  54 H54           -6.8290    -2.3948    -3.1593 H       
  55 H55           -5.7039    -3.7293    -3.5080 H       
  56 H56           -4.7096    -0.6904    -0.6678 H       
  57 H57           -6.2009    -0.5843    -1.6339 H       
  58 H58           -6.0703    -1.7864    -0.3276 H       
@<TRIPOS>BOND
   1    1    2 ar
   2    1    6 ar
   3    1   19 1
   4    2    3 ar
   5    2   33 1
   6    3    4 ar
   7    3    8 1
   8    4    5 ar
   9    4    7 1
  10    5    6 ar
  11    5   34 1
  12    6   21 1
  13    7    9 1
  14    8    9 1
  15    8   11 1
  16    8   12 1
  17    9   35 1
  18    9   36 1
  19   10   11 ar
  20   10   13 1
  21   10   18 ar
  22   11   15 ar
  23   12   13 am
  24   12   14 2
  25   13   22 1
  26   15   16 ar
  27   15   37 1
  28   16   17 ar
  29   16   38 1
  30   17   18 ar
  31   17   39 1
  32   18   40 1
  33   19   20 1
  34   20   21 1
  35   20   41 1
  36   20   42 1
  37   22   23 1
  38   22   43 1
  39   22   44 1
  40   23   24 1
  41   23   27 2
  42   24   25 2
  43   24   45 1
  44   25   26 1
  45   25   29 1
  46   26   27 1
  47   26   30 1
  48   27   28 1
  49   28   46 1
  50   28   47 1
  51   28   48 1
  52   29   49 1
  53   29   50 1
  54   29   51 1
  55   30   31 1
  56   30   32 1
  57   30   52 1
  58   31   53 1
  59   31   54 1
  60   31   55 1
  61   32   56 1
  62   32   57 1
  63   32   58 1

#	End of record

