#	Name: ASD02039182
#	Creating user name:	WinNT
#	Creation time:	15. 06. 2019 20:17

#	Modifying user name:	WinNT
#	Modification time:	15. 06. 2019 20:17

#	Program:	/corina/corina34_cracker 3.40 0067  02.08.2006

@<TRIPOS>MOLECULE
ASD02039182
  38   41    0    0    0
SMALL
NO_CHARGES


@<TRIPOS>ATOM
   1 N1             0.0021     1.2625     0.3692 N.2     
   2 C2             0.0063    -0.0135     0.0889 C.2     
   3 N3             1.2922    -0.3755    -0.1077 N.2     
   4 C4             1.9960     0.7158     0.0676 C.2     
   5 O5             1.1352     1.6953     0.3609 O.3     
   6 C6             3.4938     0.8426    -0.0406 C.3     
   7 C7             3.8675     1.1878    -1.4591 C.ar    
   8 N8            -1.1051    -0.8435     0.0088 N.pl3   
   9 C9            -2.3900    -0.3050     0.1298 C.ar    
  10 C10           -2.6365     1.0032    -0.2675 C.ar    
  11 C11           -3.9060     1.5330    -0.1471 C.ar    
  12 C12           -4.9330     0.7624     0.3692 C.ar    
  13 C13           -4.6907    -0.5420     0.7661 C.ar    
  14 C14           -3.4230    -1.0789     0.6419 C.ar    
  15 C15            3.9579     2.5202    -1.8419 C.ar    
  16 C16            4.2949     2.8593    -3.1218 C.ar    
  17 C17            4.5520     1.8614    -4.0583 C.ar    
  18 C18            4.4610     0.5100    -3.6722 C.ar    
  19 C19            4.1195     0.1884    -2.3541 C.ar    
  20 N20            4.9041     1.8704    -5.3827 N.pl3   
  21 N21            5.0344     0.5515    -5.8301 N.2     
  22 C22            4.7829    -0.2777    -4.8577 C.2     
  23 Cl23          -6.5274     1.4322     0.5200 Cl      
  24 Cl24          -5.9814    -1.5057     1.4133 Cl      
  25 C25            4.8182    -1.7819    -4.9419 C.3     
  26 F26            3.5545    -2.2583    -5.3068 F       
  27 F27            5.7589    -2.1734    -5.9005 F       
  28 F28            5.1740    -2.3104    -3.6963 F       
  29 H29            3.8411     1.6298     0.6285 H       
  30 H30            3.9595    -0.1027     0.2381 H       
  31 H31           -0.9897    -1.7964    -0.1311 H       
  32 H32           -1.8355     1.6056    -0.6699 H       
  33 H33           -4.0976     2.5500    -0.4560 H       
  34 H34           -3.2340    -2.0962     0.9515 H       
  35 H35            3.7589     3.2975    -1.1190 H       
  36 H36            4.3613     3.8989    -3.4066 H       
  37 H37            4.0475    -0.8450    -2.0485 H       
  38 H38            5.0408     2.6641    -5.9234 H       
@<TRIPOS>BOND
   1    1    2 2
   2    1    5 1
   3    2    3 1
   4    2    8 1
   5    3    4 2
   6    4    5 1
   7    4    6 1
   8    6    7 1
   9    6   29 1
  10    6   30 1
  11    7   15 ar
  12    7   19 ar
  13    8    9 1
  14    8   31 1
  15    9   10 ar
  16    9   14 ar
  17   10   11 ar
  18   10   32 1
  19   11   12 ar
  20   11   33 1
  21   12   13 ar
  22   12   23 1
  23   13   14 ar
  24   13   24 1
  25   14   34 1
  26   15   16 ar
  27   15   35 1
  28   16   17 ar
  29   16   36 1
  30   17   18 ar
  31   17   20 1
  32   18   19 ar
  33   18   22 1
  34   19   37 1
  35   20   21 1
  36   20   38 1
  37   21   22 2
  38   22   25 1
  39   25   26 1
  40   25   27 1
  41   25   28 1

#	End of record

