#	Name: ASD01140633
#	Creating user name:	WinNT
#	Creation time:	15. 06. 2019 19:01

#	Modifying user name:	WinNT
#	Modification time:	15. 06. 2019 19:01

#	Program:	/corina/corina34_cracker 3.40 0067  02.08.2006

@<TRIPOS>MOLECULE
ASD01140633
  35   37    0    0    0
SMALL
NO_CHARGES


@<TRIPOS>ATOM
   1 C1            -0.0013     1.3407    -0.1882 C.2     
   2 C2             0.0211    -0.0179    -0.1306 C.2     
   3 C3             1.2477    -0.6885     0.0219 C.2     
   4 C4             2.3999     0.0117     0.1109 C.2     
   5 C5             1.2093     2.0573    -0.0939 C.2     
   6 N6             1.4773     3.3550    -0.1201 N.2     
   7 N7             2.3901     1.3771     0.0548 N.pl3   
   8 C8             3.3885     2.3082     0.1185 C.2     
   9 C9             2.8015     3.5327     0.0073 C.2     
  10 C10            3.5056     4.8390     0.0244 C.ar    
  11 C11            4.7023     4.9968    -0.6716 C.ar    
  12 C12            5.3536     6.2131    -0.6530 C.ar    
  13 C13            4.8197     7.2763     0.0568 C.ar    
  14 C14            3.6300     7.1238     0.7502 C.ar    
  15 C15            2.9689     5.9128     0.7319 C.ar    
  16 C16            4.8611     2.0325     0.2807 C.3     
  17 N17            5.4530     1.7535    -1.0300 N.am    
  18 C18            6.7684     1.4773    -1.1304 C.2     
  19 C19            7.3772     1.1903    -2.4787 C.3     
  20 O20            7.4620     1.4596    -0.1357 O.2     
  21 F21            1.2741    -2.0380     0.0800 F       
  22 F22            5.4611     8.4652     0.0731 F       
  23 H23           -0.9373     1.8656    -0.3096 H       
  24 H24           -0.8989    -0.5791    -0.2013 H       
  25 H25            3.3369    -0.5123     0.2279 H       
  26 H26            5.1196     4.1683    -1.2246 H       
  27 H27            6.2813     6.3363    -1.1922 H       
  28 H28            3.2174     7.9551     1.3026 H       
  29 H29            2.0392     5.7960     1.2691 H       
  30 H30            5.3474     2.9029     0.7212 H       
  31 H31            4.9996     1.1701     0.9329 H       
  32 H32            4.8983     1.7676    -1.8256 H       
  33 H33            7.7248     2.1215    -2.9261 H       
  34 H34            8.2190     0.5081    -2.3595 H       
  35 H35            6.6283     0.7337    -3.1259 H       
@<TRIPOS>BOND
   1    1    2 2
   2    1    5 1
   3    1   23 1
   4    2    3 1
   5    2   24 1
   6    3    4 2
   7    3   21 1
   8    4    7 1
   9    4   25 1
  10    5    7 1
  11    5    6 2
  12    6    9 1
  13    7    8 1
  14    8    9 2
  15    8   16 1
  16    9   10 1
  17   10   11 ar
  18   10   15 ar
  19   11   12 ar
  20   11   26 1
  21   12   13 ar
  22   12   27 1
  23   13   14 ar
  24   13   22 1
  25   14   15 ar
  26   14   28 1
  27   15   29 1
  28   16   17 1
  29   16   30 1
  30   16   31 1
  31   17   18 am
  32   17   32 1
  33   18   19 1
  34   18   20 2
  35   19   33 1
  36   19   34 1
  37   19   35 1

#	End of record

