#	Name: ASD08170571
#	Creating user name:	WinNT
#	Creation time:	15. 06. 2019 21:17

#	Modifying user name:	WinNT
#	Modification time:	15. 06. 2019 21:17

#	Program:	/corina/corina34_cracker 3.40 0067  02.08.2006

@<TRIPOS>MOLECULE
ASD08170571
  74   78    0    0    0
SMALL
NO_CHARGES


@<TRIPOS>ATOM
   1 N1             0.4100     0.7831    -0.9316 N.ar    
   2 C2             0.4609    -0.5137    -1.1649 C.ar    
   3 C3            -0.8091    -1.3244    -1.1947 C.3     
   4 C4            -3.6305    -1.7400     1.3922 C.3     
   5 C5            -4.9006    -2.5507     1.3624 C.2     
   6 N6            -5.0369    -3.7722     1.7709 N.2     
   7 N7            -6.1879    -4.2793     1.6613 N.2     
   8 C8            -7.1268    -3.5396     1.1531 C.2     
   9 S9            -6.4702    -2.0040     0.7717 S.3     
  10 N10           -8.4477    -3.9279     0.9565 N.am    
  11 C11           -2.8645    -1.9437     0.0836 C.3     
  12 C12           -1.5751    -1.1206     0.1139 C.3     
  13 C13            1.6836    -1.1316    -1.3833 C.ar    
  14 C14            2.8262    -0.3468    -1.3470 C.ar    
  15 C15            2.6745     1.0149    -1.0933 C.ar    
  16 N16            1.4637     1.5150    -0.8967 N.ar    
  17 N17            3.7922     1.8473    -1.0460 N.am    
  18 C18           -8.8446    -5.1678     1.3053 C.2     
  19 O19           -8.0499    -5.9449     1.7906 O.2     
  20 C20          -10.2759    -5.5886     1.0922 C.3     
  21 C21          -10.4571    -7.0091     1.5617 C.ar    
  22 C22          -10.8199    -7.2632     2.8712 C.ar    
  23 C23          -10.9860    -8.5662     3.3019 C.ar    
  24 C24          -10.4318    -9.3607     1.1123 C.ar    
  25 C25          -10.2660    -8.0577     0.6815 C.ar    
  26 C26          -10.7898    -9.6150     2.4231 C.ar    
  27 C27            3.6355     3.1788    -0.9081 C.2     
  28 C28            4.8421     4.0662    -0.7415 C.3     
  29 O29            2.5236     3.6628    -0.9182 O.2     
  30 C30            4.3968     5.4998    -0.6088 C.ar    
  31 C31            4.1248     6.0262     0.6398 C.ar    
  32 C32            3.7162     7.3414     0.7615 C.ar    
  33 C33            3.5801     8.1299    -0.3655 C.ar    
  34 C34            3.8531     7.6036    -1.6144 C.ar    
  35 C35            4.2657     6.2901    -1.7357 C.ar    
  36 C36            3.7042     8.4632    -2.8433 C.3     
  37 N37            4.9635     9.1652    -3.1036 N.pl3   
  38 C38            5.3505    10.3423    -2.5667 C.2     
  39 C39            5.9701     8.7475    -3.9318 C.2     
  40 C40            6.9347     9.6856    -3.8765 C.2     
  41 N41            6.5296    10.6482    -3.0349 N.2     
  42 C42            4.5527    11.1664    -1.5893 C.3     
  43 H43           -1.4274    -1.0004    -2.0319 H       
  44 H44           -0.5637    -2.3800    -1.3115 H       
  45 H45           -3.8760    -0.6844     1.5090 H       
  46 H46           -3.0123    -2.0640     2.2294 H       
  47 H47           -9.0833    -3.3065     0.5683 H       
  48 H48           -2.6191    -2.9993    -0.0332 H       
  49 H49           -3.4828    -1.6197    -0.7536 H       
  50 H50           -0.9568    -1.4447     0.9511 H       
  51 H51           -1.8206    -0.0651     0.2307 H       
  52 H52            1.7438    -2.1927    -1.5754 H       
  53 H53            3.8031    -0.7775    -1.5101 H       
  54 H54            4.6825     1.4680    -1.1123 H       
  55 H55          -10.9359    -4.9317     1.6587 H       
  56 H56          -10.5201    -5.5225     0.0320 H       
  57 H57          -10.9732    -6.4438     3.5578 H       
  58 H58          -11.2688    -8.7648     4.3252 H       
  59 H59          -10.2825   -10.1799     0.4246 H       
  60 H60           -9.9859    -7.8590    -0.3424 H       
  61 H61          -10.9193   -10.6330     2.7597 H       
  62 H62            5.3891     3.7714     0.1540 H       
  63 H63            5.4898     3.9661    -1.6124 H       
  64 H64            4.2311     5.4101     1.5205 H       
  65 H65            3.5030     7.7526     1.7372 H       
  66 H66            3.2603     9.1571    -0.2705 H       
  67 H67            4.4789     5.8789    -2.7114 H       
  68 H68            3.4551     7.8347    -3.6983 H       
  69 H69            2.9088     9.1910    -2.6834 H       
  70 H70            5.9873     7.8400    -4.5172 H       
  71 H71            7.8714     9.6651    -4.4137 H       
  72 H72            4.8527    10.9147    -0.5720 H       
  73 H73            4.7374    12.2252    -1.7711 H       
  74 H74            3.4911    10.9554    -1.7177 H       
@<TRIPOS>BOND
   1    1    2 ar
   2    1   16 ar
   3    2    3 1
   4    2   13 ar
   5    3   12 1
   6    3   43 1
   7    3   44 1
   8    4    5 1
   9    4   11 1
  10    4   45 1
  11    4   46 1
  12    5    6 2
  13    5    9 1
  14    6    7 1
  15    7    8 2
  16    8    9 1
  17    8   10 1
  18   10   18 am
  19   10   47 1
  20   11   12 1
  21   11   48 1
  22   11   49 1
  23   12   50 1
  24   12   51 1
  25   13   14 ar
  26   13   52 1
  27   14   15 ar
  28   14   53 1
  29   15   16 ar
  30   15   17 1
  31   17   27 am
  32   17   54 1
  33   18   19 2
  34   18   20 1
  35   20   21 1
  36   20   55 1
  37   20   56 1
  38   21   22 ar
  39   21   25 ar
  40   22   23 ar
  41   22   57 1
  42   23   26 ar
  43   23   58 1
  44   24   25 ar
  45   24   26 ar
  46   24   59 1
  47   25   60 1
  48   26   61 1
  49   27   28 1
  50   27   29 2
  51   28   30 1
  52   28   62 1
  53   28   63 1
  54   30   31 ar
  55   30   35 ar
  56   31   32 ar
  57   31   64 1
  58   32   33 ar
  59   32   65 1
  60   33   34 ar
  61   33   66 1
  62   34   35 ar
  63   34   36 1
  64   35   67 1
  65   36   37 1
  66   36   68 1
  67   36   69 1
  68   37   38 1
  69   37   39 1
  70   38   42 1
  71   38   41 2
  72   39   40 2
  73   39   70 1
  74   40   41 1
  75   40   71 1
  76   42   72 1
  77   42   73 1
  78   42   74 1

#	End of record

