#	Name: ASD01940222
#	Creating user name:	WinNT
#	Creation time:	15. 06. 2019 20:12

#	Modifying user name:	WinNT
#	Modification time:	15. 06. 2019 20:12

#	Program:	/corina/corina34_cracker 3.40 0067  02.08.2006

@<TRIPOS>MOLECULE
ASD01940222
  44   46    0    0    0
SMALL
NO_CHARGES


@<TRIPOS>ATOM
   1 C1            -0.6644    -2.9456     1.5902 C.3     
   2 C2             6.0020    -0.1185     7.7966 C.ar    
   3 F3             1.8007     2.4574     3.0781 F       
   4 C4             0.8513     1.5346     3.3470 C.ar    
   5 C5             1.2002     0.1974     3.4812 C.ar    
   6 C6             0.2171    -0.7510     3.7591 C.ar    
   7 C7            -1.1045    -0.3549     3.9004 C.ar    
   8 C8            -1.4461     0.9782     3.7657 C.ar    
   9 C9            -0.4708     1.9227     3.4948 C.ar    
  10 N10            2.5372    -0.1979     3.3370 N.pl3   
  11 N11            0.5634    -2.1019     3.8951 N.am    
  12 C12            3.3927    -0.1783     4.4381 C.ar    
  13 C13            2.9029     0.1714     5.6918 C.ar    
  14 C14            3.7468     0.1914     6.7813 C.ar    
  15 C15            5.0923    -0.1398     6.6260 C.ar    
  16 C16            5.5815    -0.4907     5.3678 C.ar    
  17 C17            4.7335    -0.5142     4.2821 C.ar    
  18 C18            5.2615    -0.8933     2.9224 C.3     
  19 F19           -0.8094     3.2246     3.3693 F       
  20 S20           -0.4718    -3.2797     3.3627 S.o2    
  21 O21           -1.6854    -3.0183     4.0541 O.2     
  22 O22            0.2413    -4.4916     3.5671 O.2     
  23 C23            5.5310     0.2310     9.0660 C.ar    
  24 C24            6.4113     0.2375    10.1279 C.ar    
  25 N25            7.6806    -0.0800     9.9573 N.ar    
  26 C26            8.1653    -0.4155     8.7768 C.ar    
  27 C27            7.3530    -0.4529     7.6626 C.ar    
  28 H28            0.3078    -3.0069     1.1011 H       
  29 H29           -1.3383    -3.6822     1.1527 H       
  30 H30           -1.0785    -1.9468     1.4516 H       
  31 H31           -1.8675    -1.0884     4.1154 H       
  32 H32           -2.4760     1.2840     3.8762 H       
  33 H33            2.8674    -0.4852     2.4714 H       
  34 H34            1.4095    -2.3472     4.3011 H       
  35 H35            1.8607     0.4279     5.8117 H       
  36 H36            3.3662     0.4638     7.7547 H       
  37 H37            6.6233    -0.7476     5.2455 H       
  38 H38            5.1718    -1.9709     2.7854 H       
  39 H39            4.6851    -0.3799     2.1528 H       
  40 H40            6.3094    -0.6032     2.8457 H       
  41 H41            4.4934     0.4924     9.2127 H       
  42 H42            6.0570     0.5065    11.1120 H       
  43 H43            9.2111    -0.6679     8.6824 H       
  44 H44            7.7563    -0.7288     6.6994 H       
@<TRIPOS>BOND
   1    1   20 1
   2    1   28 1
   3    1   29 1
   4    1   30 1
   5    2   23 ar
   6    2   15 1
   7    2   27 ar
   8    3    4 1
   9    4    5 ar
  10    4    9 ar
  11    5    6 ar
  12    5   10 1
  13    6    7 ar
  14    6   11 1
  15    7    8 ar
  16    7   31 1
  17    8    9 ar
  18    8   32 1
  19    9   19 1
  20   10   12 1
  21   10   33 1
  22   11   20 am
  23   11   34 1
  24   12   13 ar
  25   12   17 ar
  26   13   14 ar
  27   13   35 1
  28   14   15 ar
  29   14   36 1
  30   15   16 ar
  31   16   17 ar
  32   16   37 1
  33   17   18 1
  34   18   38 1
  35   18   39 1
  36   18   40 1
  37   20   21 2
  38   20   22 2
  39   23   24 ar
  40   23   41 1
  41   24   25 ar
  42   24   42 1
  43   25   26 ar
  44   26   27 ar
  45   26   43 1
  46   27   44 1

#	End of record

