#	Name: ASD09800071
#	Creating user name:	WinNT
#	Creation time:	15. 06. 2019 21:24

#	Modifying user name:	WinNT
#	Modification time:	15. 06. 2019 21:24

#	Program:	/corina/corina34_cracker 3.40 0067  02.08.2006

@<TRIPOS>MOLECULE
ASD09800071
  32   34    0    0    0
SMALL
NO_CHARGES


@<TRIPOS>ATOM
   1 C1            -0.0347     1.2567     0.1326 C.2     
   2 C2             0.0089    -0.0577    -0.2083 C.2     
   3 N3             1.3047    -0.4459    -0.3081 N.pl3   
   4 C4             2.1116     0.6401    -0.0259 C.2     
   5 C5             1.2757     1.7157     0.2526 C.2     
   6 C6             1.7501    -1.7315    -0.6409 C.ar    
   7 C7             1.3275    -2.8275     0.0997 C.ar    
   8 C8             1.7679    -4.0940    -0.2308 C.ar    
   9 C9             2.6294    -4.2715    -1.2989 C.ar    
  10 C10            3.0521    -3.1811    -2.0386 C.ar    
  11 C11            2.6106    -1.9130    -1.7156 C.ar    
  12 C12            3.5157     0.6543    -0.0208 C.2     
  13 C13            4.2167    -0.2186     0.8035 C.2     
  14 C14            3.5240    -1.0774     1.7797 C.2     
  15 C15            5.6842    -0.3295     0.7345 C.2     
  16 N16            6.2978    -1.1976     1.5648 N.am    
  17 C17            5.6036    -1.9454     2.4341 C.2     
  18 N18            4.2687    -1.9002     2.5466 N.am    
  19 O19            2.3127    -1.0451     1.8915 O.2     
  20 O20            6.3255     0.3437    -0.0507 O.2     
  21 S21            6.4669    -3.0202     3.4492 S.2     
  22 Br22           3.2308    -6.0071    -1.7482 Br      
  23 H23           -0.9287     1.8444     0.2803 H       
  24 H24           -0.8499    -0.6914    -0.3733 H       
  25 H25            1.5837     2.7176     0.5127 H       
  26 H26            0.6553    -2.6895     0.9337 H       
  27 H27            1.4398    -4.9467     0.3451 H       
  28 H28            3.7246    -3.3224    -2.8717 H       
  29 H29            2.9373    -1.0629    -2.2960 H       
  30 H30            4.0511     1.3434    -0.6572 H       
  31 H31            7.2635    -1.2829     1.5318 H       
  32 H32            3.8281    -2.4719     3.1946 H       
@<TRIPOS>BOND
   1    1    2 2
   2    1    5 1
   3    1   23 1
   4    2    3 1
   5    2   24 1
   6    3    4 1
   7    3    6 1
   8    4    5 2
   9    4   12 1
  10    5   25 1
  11    6    7 ar
  12    6   11 ar
  13    7    8 ar
  14    7   26 1
  15    8    9 ar
  16    8   27 1
  17    9   10 ar
  18    9   22 1
  19   10   11 ar
  20   10   28 1
  21   11   29 1
  22   12   13 2
  23   12   30 1
  24   13   15 1
  25   13   14 1
  26   14   18 am
  27   14   19 2
  28   15   16 am
  29   15   20 2
  30   16   17 am
  31   16   31 1
  32   17   18 am
  33   17   21 2
  34   18   32 1

#	End of record

