#	Name: ASD03700005
#	Creating user name:	WinNT
#	Creation time:	15. 06. 2019 20:43

#	Modifying user name:	WinNT
#	Modification time:	15. 06. 2019 20:43

#	Program:	/corina/corina34_cracker 3.40 0067  02.08.2006

@<TRIPOS>MOLECULE
ASD03700005
  53   57    0    0    0
SMALL
NO_CHARGES


@<TRIPOS>ATOM
   1 C1            -0.2434     1.0297    -0.1379 C.ar    
   2 C2             0.2260     0.5896    -1.3837 C.ar    
   3 C3            -0.4280     0.9202    -2.5354 C.ar    
   4 C4            -1.5875     1.7111    -2.4775 C.ar    
   5 C5            -2.0594     2.1535    -1.2177 C.ar    
   6 C6            -1.3702     1.7950    -0.0495 C.ar    
   7 N7            -2.2455     2.0485    -3.5930 N.ar    
   8 C8            -3.3298     2.7868    -3.5558 C.ar    
   9 C9            -3.8539     3.2590    -2.3591 C.ar    
  10 C10           -3.2263     2.9488    -1.1655 C.ar    
  11 O11           -3.7153     3.3953     0.0178 O.3     
  12 C12           -4.8990     4.0623     0.0079 C.ar    
  13 C13           -4.9099     5.4198     0.1620 C.ar    
  14 C14           -6.1333     6.1101     0.1515 C.ar    
  15 C15           -7.3379     5.3855    -0.0193 C.ar    
  16 C16           -7.2913     3.9929    -0.1743 C.ar    
  17 C17           -6.0903     3.3517    -0.1656 C.ar    
  18 C18           -6.1809     7.5069     0.3080 C.ar    
  19 C19           -7.3787     8.1560     0.2954 C.ar    
  20 C20           -8.5710     7.4621     0.1295 C.ar    
  21 C21           -8.5712     6.0845    -0.0296 C.ar    
  22 C22           -9.8405     5.3545    -0.2057 C.2     
  23 N23          -11.0136     6.0126    -0.1218 N.am    
  24 O24           -9.8286     4.1588    -0.4266 O.2     
  25 C25          -12.2745     5.2874    -0.2967 C.3     
  26 O26            0.4273     0.6860     0.9939 O.3     
  27 C27           -0.1012     1.1652     2.2321 C.3     
  28 O28            1.3472    -0.1757    -1.4454 O.3     
  29 C29            1.7767    -0.5937    -2.7427 C.3     
  30 C30          -13.5258     5.8785     0.3558 C.3     
  31 C31          -13.3520     5.9428    -1.1629 C.3     
  32 H32           -0.0549     0.5750    -3.4883 H       
  33 H33           -1.7252     2.1290     0.9143 H       
  34 H34           -3.8283     3.0346    -4.4813 H       
  35 H35           -4.7478     3.8650    -2.3601 H       
  36 H36           -3.9831     5.9591     0.2916 H       
  37 H37           -8.2045     3.4313    -0.3047 H       
  38 H38           -6.0582     2.2788    -0.2854 H       
  39 H39           -5.2662     8.0660     0.4387 H       
  40 H40           -7.4019     9.2289     0.4169 H       
  41 H41           -9.5069     8.0011     0.1240 H       
  42 H42          -11.0231     6.9664     0.0544 H       
  43 H43          -12.1910     4.2012    -0.3328 H       
  44 H44           -1.1144     0.7864     2.3656 H       
  45 H45            0.5270     0.8199     3.0532 H       
  46 H46           -0.1192     2.2550     2.2219 H       
  47 H47            1.9862     0.2827    -3.3560 H       
  48 H48            2.6802    -1.1964    -2.6496 H       
  49 H49            0.9914    -1.1863    -3.2120 H       
  50 H50          -14.2657     5.1811     0.7487 H       
  51 H51          -13.4109     6.8069     0.9153 H       
  52 H52          -13.1229     6.9134    -1.6026 H       
  53 H53          -13.9777     5.2877    -1.7692 H       
@<TRIPOS>BOND
   1    1    2 ar
   2    1   26 1
   3    1    6 ar
   4    2    3 ar
   5    2   28 1
   6    3    4 ar
   7    3   32 1
   8    4    5 ar
   9    4    7 ar
  10    5    6 ar
  11    5   10 ar
  12    6   33 1
  13    7    8 ar
  14    8    9 ar
  15    8   34 1
  16    9   10 ar
  17    9   35 1
  18   10   11 1
  19   11   12 1
  20   12   13 ar
  21   12   17 ar
  22   13   14 ar
  23   13   36 1
  24   14   15 ar
  25   14   18 ar
  26   15   16 ar
  27   15   21 ar
  28   16   17 ar
  29   16   37 1
  30   17   38 1
  31   18   19 ar
  32   18   39 1
  33   19   20 ar
  34   19   40 1
  35   20   21 ar
  36   20   41 1
  37   21   22 1
  38   22   23 am
  39   22   24 2
  40   23   25 1
  41   23   42 1
  42   25   30 1
  43   25   31 1
  44   25   43 1
  45   26   27 1
  46   27   44 1
  47   27   45 1
  48   27   46 1
  49   28   29 1
  50   29   47 1
  51   29   48 1
  52   29   49 1
  53   30   31 1
  54   30   50 1
  55   30   51 1
  56   31   52 1
  57   31   53 1

#	End of record

