#	Name: ASD01028600
#	Creating user name:	WinNT
#	Creation time:	15. 06. 2019 18:57

#	Modifying user name:	WinNT
#	Modification time:	15. 06. 2019 18:57

#	Program:	/corina/corina34_cracker 3.40 0067  02.08.2006

@<TRIPOS>MOLECULE
ASD01028600
  33   34    0    0    0
SMALL
NO_CHARGES


@<TRIPOS>ATOM
   1 N1            -0.0179     1.4659     0.0101 N.3     
   2 C2             0.0021    -0.0041     0.0020 C.3     
   3 C3             0.7497    -0.4921    -1.2417 C.3     
   4 O4             2.0659     0.0673    -1.2506 O.3     
   5 C5             2.0838     1.4973    -1.2437 C.3     
   6 C6             1.3496     2.0055    -0.0001 C.3     
   7 S7            -1.4963     0.9728     2.2751 S.3     
   8 C8            -0.7336     1.9470     1.0952 C.2     
   9 N9            -0.9218     3.2018     1.3638 N.2     
  10 C10           -1.6308     3.4816     2.4429 C.2     
  11 C11           -2.0609     2.4141     3.1161 C.2     
  12 Sn12          -2.0567     5.4956     3.0633 Du      
  13 C13           -3.8946     6.1502     2.1601 C.3     
  14 C14           -2.2470     5.5610     5.2039 C.3     
  15 C15           -0.4543     6.7895     2.4465 C.3     
  16 H16            0.5087    -0.3661     0.8967 H       
  17 H17           -1.0202    -0.3818    -0.0162 H       
  18 H18            0.8167    -1.5799    -1.2226 H       
  19 H19            0.2136    -0.1754    -2.1363 H       
  20 H20            3.1155     1.8483    -1.2262 H       
  21 H21            1.5864     1.8718    -2.1384 H       
  22 H22            1.3110     3.0946    -0.0198 H       
  23 H23            1.8778     1.6756     0.8946 H       
  24 H24           -2.6524     2.4302     4.0195 H       
  25 H25           -4.7070     5.4942     2.4728 H       
  26 H26           -4.1105     7.1713     2.4746 H       
  27 H27           -3.7981     6.1171     1.0749 H       
  28 H28           -1.3152     5.2291     5.6618 H       
  29 H29           -2.4629     6.5820     5.5184 H       
  30 H30           -3.0594     4.9050     5.5167 H       
  31 H31           -0.3578     6.7563     1.3612 H       
  32 H32           -0.6702     7.8105     2.7610 H       
  33 H33            0.4775     6.4576     2.9044 H       
@<TRIPOS>BOND
   1    1    2 1
   2    1    6 1
   3    1    8 1
   4    2    3 1
   5    2   16 1
   6    2   17 1
   7    3    4 1
   8    3   18 1
   9    3   19 1
  10    4    5 1
  11    5    6 1
  12    5   20 1
  13    5   21 1
  14    6   22 1
  15    6   23 1
  16    7    8 1
  17    7   11 1
  18    8    9 2
  19    9   10 1
  20   10   11 2
  21   10   12 1
  22   11   24 1
  23   12   13 1
  24   12   14 1
  25   12   15 1
  26   13   25 1
  27   13   26 1
  28   13   27 1
  29   14   28 1
  30   14   29 1
  31   14   30 1
  32   15   31 1
  33   15   32 1
  34   15   33 1

#	End of record

