#	Name: ASD04910524
#	Creating user name:	WinNT
#	Creation time:	15. 06. 2019 20:56

#	Modifying user name:	WinNT
#	Modification time:	15. 06. 2019 20:56

#	Program:	/corina/corina34_cracker 3.40 0067  02.08.2006

@<TRIPOS>MOLECULE
ASD04910524
  27   29    0    0    0
SMALL
NO_CHARGES


@<TRIPOS>ATOM
   1 C1            -0.0168     1.3842     0.0097 C.ar    
   2 C2             0.0021    -0.0041     0.0020 C.ar    
   3 C3             1.2282    -0.6660    -0.0132 C.ar    
   4 C4             2.3858     0.0919    -0.0202 C.ar    
   5 C5             2.2883     1.4775    -0.0118 C.ar    
   6 N6             1.1072     2.0732     0.0026 N.ar    
   7 N7            -1.1939    -0.7286     0.0100 N.pl3   
   8 N8             3.4537     2.2527    -0.0183 N.pl3   
   9 N9             4.7678     1.7674    -0.0334 N.2     
  10 C10            5.5827     2.7911    -0.0352 C.2     
  11 C11            4.8183     3.9630    -0.0212 C.2     
  12 C12            3.5122     3.6095    -0.0169 C.2     
  13 C13            5.3552     5.3712    -0.0177 C.3     
  14 C14            6.2520     5.7824     1.1517 C.3     
  15 C15            6.8586     5.5546    -0.2343 C.3     
  16 H16           -0.9626     1.9054     0.0169 H       
  17 H17            1.2738    -1.7451    -0.0191 H       
  18 H18            3.3533    -0.3879    -0.0316 H       
  19 H19           -2.0439    -0.2615     0.0209 H       
  20 H20           -1.1735    -1.6984     0.0046 H       
  21 H21            6.6614     2.7403    -0.0452 H       
  22 H22            2.6689     4.2841    -0.0107 H       
  23 H23            4.6904     6.1288    -0.4328 H       
  24 H24            6.1775     6.8106     1.5057 H       
  25 H25            6.4537     5.0344     1.9185 H       
  26 H26            7.4594     4.6567    -0.3793 H       
  27 H27            7.1833     6.4329    -0.7921 H       
@<TRIPOS>BOND
   1    1    2 ar
   2    1    6 ar
   3    1   16 1
   4    2    3 ar
   5    2    7 1
   6    3    4 ar
   7    3   17 1
   8    4    5 ar
   9    4   18 1
  10    5    6 ar
  11    5    8 1
  12    7   19 1
  13    7   20 1
  14    8    9 1
  15    8   12 1
  16    9   10 2
  17   10   11 1
  18   10   21 1
  19   11   12 2
  20   11   13 1
  21   12   22 1
  22   13   14 1
  23   13   15 1
  24   13   23 1
  25   14   15 1
  26   14   24 1
  27   14   25 1
  28   15   26 1
  29   15   27 1

#	End of record

