#	Name: ASD04590340
#	Creating user name:	WinNT
#	Creation time:	15. 06. 2019 20:50

#	Modifying user name:	WinNT
#	Modification time:	15. 06. 2019 20:50

#	Program:	/corina/corina34_cracker 3.40 0067  02.08.2006

@<TRIPOS>MOLECULE
ASD04590340
  38   41    0    0    0
SMALL
NO_CHARGES


@<TRIPOS>ATOM
   1 C1             0.5814     1.6785     2.0320 C.ar    
   2 C2             1.2842     0.7989     2.8427 C.ar    
   3 C3             2.2346    -0.0393     2.3058 C.ar    
   4 C4             2.4945    -0.0049     0.9322 C.ar    
   5 C5             1.7790     0.8886     0.1154 C.ar    
   6 C6             0.8249     1.7257     0.6753 C.ar    
   7 N7             3.3468    -0.6875     0.1289 N.2     
   8 C8             3.2063    -0.2803    -1.1095 C.2     
   9 N9             2.2475     0.6950    -1.1704 N.pl3   
  10 C10            3.9688    -0.7959    -2.2653 C.2     
  11 C11            4.9622    -1.8011    -2.2240 C.2     
  12 C12            5.4164    -1.9856    -3.4874 C.2     
  13 N13            4.7405    -1.1328    -4.3019 N.pl3   
  14 N14            3.8383    -0.4034    -3.5175 N.2     
  15 N15            5.4007    -2.4859    -1.0778 N.am    
  16 C16            6.3604    -3.4266    -1.1806 C.2     
  17 N17            6.7809    -4.0833    -0.0814 N.am    
  18 O18            6.8470    -3.6827    -2.2653 O.2     
  19 C19            9.0661    -4.8757    -0.1102 C.ar    
  20 C20            7.7033    -5.1324    -0.2015 C.ar    
  21 C21            7.2571    -6.4316    -0.4116 C.ar    
  22 C22            8.1702    -7.4642    -0.5292 C.ar    
  23 C23            9.5252    -7.2049    -0.4373 C.ar    
  24 C24            9.9732    -5.9128    -0.2336 C.ar    
  25 F25            5.9332    -6.6860    -0.5006 F       
  26 F26            9.5045    -3.6142     0.0936 F       
  27 H27           -0.1649     2.3276     2.4657 H       
  28 H28            1.0843     0.7720     3.9037 H       
  29 H29            2.7780    -0.7211     2.9431 H       
  30 H30            0.2741     2.4129     0.0502 H       
  31 H31            1.9518     1.1625    -1.9672 H       
  32 H32            6.1801    -2.6855    -3.7927 H       
  33 H33            4.8599    -1.0468    -5.2606 H       
  34 H34            5.0126    -2.2816    -0.2126 H       
  35 H35            6.4455    -3.8301     0.7928 H       
  36 H36            7.8242    -8.4742    -0.6925 H       
  37 H37           10.2357    -8.0132    -0.5288 H       
  38 H38           11.0324    -5.7142    -0.1624 H       
@<TRIPOS>BOND
   1    1    2 ar
   2    1    6 ar
   3    1   27 1
   4    2    3 ar
   5    2   28 1
   6    3    4 ar
   7    3   29 1
   8    4    5 ar
   9    4    7 1
  10    5    6 ar
  11    5    9 1
  12    6   30 1
  13    7    8 2
  14    8    9 1
  15    8   10 1
  16    9   31 1
  17   10   11 1
  18   10   14 2
  19   11   12 2
  20   11   15 1
  21   12   13 1
  22   12   32 1
  23   13   14 1
  24   13   33 1
  25   15   16 am
  26   15   34 1
  27   16   17 am
  28   16   18 2
  29   17   20 1
  30   17   35 1
  31   19   26 1
  32   19   20 ar
  33   19   24 ar
  34   20   21 ar
  35   21   22 ar
  36   21   25 1
  37   22   23 ar
  38   22   36 1
  39   23   24 ar
  40   23   37 1
  41   24   38 1

#	End of record

