#	Name: ASD01882976
#	Creating user name:	WinNT
#	Creation time:	15. 06. 2019 19:45

#	Modifying user name:	WinNT
#	Modification time:	15. 06. 2019 19:45

#	Program:	/corina/corina34_cracker 3.40 0067  02.08.2006

@<TRIPOS>MOLECULE
ASD01882976
  37   37    0    0    0
SMALL
NO_CHARGES


@<TRIPOS>ATOM
   1 N1            -0.0165     1.3692     0.0096 N.pl3   
   2 O2             1.1412    -0.7243    -0.0127 O.3     
   3 C3             0.0021    -0.0041     0.0020 C.2     
   4 N4            -1.0753    -0.7270     0.0089 N.2     
   5 C5            -0.6823    -2.1496     0.0076 C.3     
   6 C6             0.8153    -2.0697     0.3922 C.3     
   7 C7             1.6390    -3.0940    -0.3909 C.3     
   8 O8             3.0178    -2.9666    -0.0377 O.3     
   9 Si9            4.0005    -4.0124    -0.8128 Si      
  10 C10            3.4894    -5.7585    -0.4118 C.3     
  11 C11            3.8761    -3.7356    -2.6509 C.3     
  12 C12            5.7586    -3.7378    -0.2611 C.3     
  13 C13            5.8609    -3.9652     1.2485 C.3     
  14 C14            6.6805    -4.7189    -0.9882 C.3     
  15 C15            6.1784    -2.3039    -0.5904 C.3     
  16 H16            0.8168     1.8655     0.0043 H       
  17 H17           -0.8631     1.8427     0.0162 H       
  18 H18           -1.2463    -2.7101     0.7532 H       
  19 H19           -0.8071    -2.5872    -0.9829 H       
  20 H20            0.9511    -2.1991     1.4659 H       
  21 H21            1.2935    -4.0992    -0.1495 H       
  22 H22            1.5198    -2.9156    -1.4596 H       
  23 H23            2.4607    -5.9191    -0.7346 H       
  24 H24            4.1461    -6.4574    -0.9298 H       
  25 H25            3.5622    -5.9204     0.6637 H       
  26 H26            4.1751    -2.7140    -2.8855 H       
  27 H27            4.5328    -4.4345    -3.1689 H       
  28 H28            2.8474    -3.8962    -2.9737 H       
  29 H29            5.5618    -4.9868     1.4831 H       
  30 H30            6.8895    -3.8045     1.5713 H       
  31 H31            5.2041    -3.2663     1.7665 H       
  32 H32            6.6077    -4.5569    -2.0636 H       
  33 H33            7.7091    -4.5582    -0.6654 H       
  34 H34            6.3814    -5.7404    -0.7535 H       
  35 H35            5.5217    -1.6050    -0.0724 H       
  36 H36            7.2071    -2.1432    -0.2676 H       
  37 H37            6.1056    -2.1419    -1.6659 H       
@<TRIPOS>BOND
   1    1    3 1
   2    1   16 1
   3    1   17 1
   4    2    3 1
   5    2    6 1
   6    3    4 2
   7    4    5 1
   8    5    6 1
   9    5   18 1
  10    5   19 1
  11    6    7 1
  12    6   20 1
  13    7    8 1
  14    7   21 1
  15    7   22 1
  16    8    9 1
  17    9   10 1
  18    9   11 1
  19    9   12 1
  20   10   23 1
  21   10   24 1
  22   10   25 1
  23   11   26 1
  24   11   27 1
  25   11   28 1
  26   12   13 1
  27   12   15 1
  28   12   14 1
  29   13   29 1
  30   13   30 1
  31   13   31 1
  32   14   32 1
  33   14   33 1
  34   14   34 1
  35   15   35 1
  36   15   36 1
  37   15   37 1

#	End of record

