#	Name: ASD08150522
#	Creating user name:	WinNT
#	Creation time:	15. 06. 2019 21:16

#	Modifying user name:	WinNT
#	Modification time:	15. 06. 2019 21:16

#	Program:	/corina/corina34_cracker 3.40 0067  02.08.2006

@<TRIPOS>MOLECULE
ASD08150522
  31   32    0    0    0
SMALL
NO_CHARGES


@<TRIPOS>ATOM
   1 C1            -0.0193     1.4669     0.0375 C.2     
   2 C2            -0.0021    -0.0064     0.0428 C.ar    
   3 C3            -0.0046    -0.7088     1.2586 C.ar    
   4 C4             0.0117    -2.0974     1.2501 C.ar    
   5 C5             0.0303    -2.7823     0.0517 C.ar    
   6 C6             0.0328    -2.0938    -1.1501 C.ar    
   7 C7             0.0109    -0.7144    -1.1630 C.ar    
   8 O8             1.0268     2.0872     0.0446 O.2     
   9 N9            -1.1941     2.1271     0.0193 N.am    
  10 C10           -1.2148     3.5209     0.1325 C.ar    
  11 C11           -2.1864     4.2588    -0.5316 C.ar    
  12 C12           -1.2558     6.2784     0.3565 C.ar    
  13 C13           -0.2676     4.1697     0.9137 C.ar    
  14 C14           -2.2041     5.6348    -0.4177 C.ar    
  15 C15           -0.2908     5.5464     1.0234 C.ar    
  16 C16           -3.2198     3.5584    -1.3758 C.3     
  17 Cl17           0.0070     0.1410    -2.6736 Cl      
  18 N18           -0.0229    -0.0184     2.4636 N.pl3   
  19 H19            0.0102    -2.6424     2.1826 H       
  20 H20            0.0433    -3.8622     0.0512 H       
  21 H21            0.0477    -2.6397    -2.0819 H       
  22 H22           -2.0253     1.6355    -0.0724 H       
  23 H23           -1.2718     7.3547     0.4439 H       
  24 H24            0.4862     3.5985     1.4351 H       
  25 H25           -2.9590     6.2092    -0.9341 H       
  26 H26            0.4483     6.0520     1.6271 H       
  27 H27           -4.0860     3.3136    -0.7610 H       
  28 H28           -3.5266     4.2128    -2.1917 H       
  29 H29           -2.7942     2.6423    -1.7853 H       
  30 H30           -0.0339     0.9515     2.4667 H       
  31 H31           -0.0245    -0.5061     3.3021 H       
@<TRIPOS>BOND
   1    1    2 1
   2    1    8 2
   3    1    9 am
   4    2    3 ar
   5    2    7 ar
   6    3    4 ar
   7    3   18 1
   8    4    5 ar
   9    4   19 1
  10    5    6 ar
  11    5   20 1
  12    6    7 ar
  13    6   21 1
  14    7   17 1
  15    9   10 1
  16    9   22 1
  17   10   11 ar
  18   10   13 ar
  19   11   14 ar
  20   11   16 1
  21   12   14 ar
  22   12   15 ar
  23   12   23 1
  24   13   15 ar
  25   13   24 1
  26   14   25 1
  27   15   26 1
  28   16   27 1
  29   16   28 1
  30   16   29 1
  31   18   30 1
  32   18   31 1

#	End of record

