#	Name: ASD03180104
#	Creating user name:	WinNT
#	Creation time:	15. 06. 2019 20:33

#	Modifying user name:	WinNT
#	Modification time:	15. 06. 2019 20:33

#	Program:	/corina/corina34_cracker 3.40 0067  02.08.2006

@<TRIPOS>MOLECULE
ASD03180104
  37   40    0    0    0
SMALL
NO_CHARGES


@<TRIPOS>ATOM
   1 N1            -0.0169     1.3933     0.0097 N.pl3   
   2 C2            -0.0302    -0.0031    -0.0442 C.ar    
   3 C3             1.1401    -2.0843    -0.2684 C.ar    
   4 C4            -0.0566    -2.7679    -0.1520 C.ar    
   5 C5            -1.2404    -2.0727     0.0129 C.ar    
   6 C6            -1.2308    -0.6926     0.0671 C.ar    
   7 C7             1.1569    -0.7047    -0.2151 C.ar    
   8 C8            -2.5215     0.0643     0.2473 C.3     
   9 N9             2.3491     1.5236     0.2022 N.2     
  10 C10            3.4286     2.3352     0.2385 C.2     
  11 C11            1.1898     2.0733     0.0665 C.2     
  12 S12            1.3777     3.8193    -0.0365 S.3     
  13 C13            3.1244     3.6421     0.1237 C.2     
  14 C14           -3.0606     0.4862    -1.1210 C.3     
  15 C15            4.9109     2.1847     0.3745 C.ar    
  16 C16            5.5121     3.4376     0.3402 C.ar    
  17 C17            4.4047     4.4469     0.1775 C.3     
  18 C18            5.7016     1.0448     0.5188 C.ar    
  19 C19            7.0720     1.1715     0.6260 C.ar    
  20 C20            7.6616     2.4222     0.5913 C.ar    
  21 C21            6.8803     3.5565     0.4485 C.ar    
  22 H22           -0.8519     1.8869     0.0034 H       
  23 H23            2.0629    -2.6304    -0.3971 H       
  24 H24           -0.0670    -3.8470    -0.1944 H       
  25 H25           -2.1731    -2.6096     0.1035 H       
  26 H26            2.0916    -0.1715    -0.3064 H       
  27 H27           -3.2513    -0.5751     0.7440 H       
  28 H28           -2.3411     0.9505     0.8557 H       
  29 H29           -3.2410    -0.4000    -1.7294 H       
  30 H30           -3.9941     1.0336    -0.9907 H       
  31 H31           -2.3308     1.1255    -1.6177 H       
  32 H32            4.5375     5.0058    -0.7489 H       
  33 H33            4.3867     5.1269     1.0292 H       
  34 H34            5.2435     0.0671     0.5469 H       
  35 H35            7.6864     0.2903     0.7378 H       
  36 H36            8.7343     2.5144     0.6764 H       
  37 H37            7.3426     4.5322     0.4213 H       
@<TRIPOS>BOND
   1    1    2 1
   2    1   11 1
   3    1   22 1
   4    2    7 ar
   5    2    6 ar
   6    3    4 ar
   7    3    7 ar
   8    3   23 1
   9    4    5 ar
  10    4   24 1
  11    5    6 ar
  12    5   25 1
  13    6    8 1
  14    7   26 1
  15    8   14 1
  16    8   27 1
  17    8   28 1
  18    9   11 2
  19    9   10 1
  20   10   13 2
  21   10   15 1
  22   11   12 1
  23   12   13 1
  24   13   17 1
  25   14   29 1
  26   14   30 1
  27   14   31 1
  28   15   18 ar
  29   15   16 ar
  30   16   17 1
  31   16   21 ar
  32   17   32 1
  33   17   33 1
  34   18   19 ar
  35   18   34 1
  36   19   20 ar
  37   19   35 1
  38   20   21 ar
  39   20   36 1
  40   21   37 1

#	End of record

