#	Name: ASD05730164
#	Creating user name:	WinNT
#	Creation time:	15. 06. 2019 21:02

#	Modifying user name:	WinNT
#	Modification time:	15. 06. 2019 21:02

#	Program:	/corina/corina34_cracker 3.40 0067  02.08.2006

@<TRIPOS>MOLECULE
ASD05730164
  61   64    0    0    0
SMALL
NO_CHARGES


@<TRIPOS>ATOM
   1 C1             0.0080     1.3749     0.0034 C.ar    
   2 C2             0.0417    -0.0098    -0.0054 C.ar    
   3 C3             1.2563    -0.6733    -0.0118 C.ar    
   4 C4             2.4403     0.0405    -0.0256 C.ar    
   5 C5             2.4191     1.4381    -0.0336 C.ar    
   6 C6             1.1861     2.1001     0.0050 C.ar    
   7 N7             1.1350     3.5024     0.0917 N.pl3   
   8 N8             3.5956     2.1160    -0.1251 N.2     
   9 C9             3.9393     3.1971     0.4801 C.2     
  10 C10            3.1078     3.9651     1.4199 C.ar    
  11 C11            0.9768     4.9008     2.0474 C.ar    
  12 C12            1.7386     4.1268     1.1851 C.ar    
  13 C13            3.6856     4.5460     2.5500 C.ar    
  14 C14            2.9109     5.3000     3.4098 C.ar    
  15 C15            1.5625     5.4853     3.1544 C.ar    
  16 C16            0.4631     4.2919    -0.9434 C.3     
  17 C17            1.4892     4.7504    -1.9816 C.3     
  18 N18            5.2025     3.6805     0.2253 N.pl3   
  19 C19            6.0869     2.9676    -0.6998 C.3     
  20 C20            7.1358     3.9289    -1.3185 C.3     
  21 C21            8.3105     2.9871    -1.6571 C.3     
  22 N22            8.1748     1.7964    -0.8054 N.am    
  23 C23            6.9925     1.9656     0.0589 C.3     
  24 C24            8.9948     0.7268    -0.8141 C.2     
  25 O25            8.7853    -0.2060    -0.0628 O.2     
  26 N26           10.0470     0.6912    -1.6556 N.am    
  27 C27           10.9383    -0.4715    -1.6650 C.3     
  28 C28           10.1373    -1.7253    -2.0216 C.3     
  29 C29           12.0423    -0.2593    -2.7029 C.3     
  30 C30           11.5662    -0.6440    -0.2805 C.3     
  31 Cl31           3.6306     6.0180     4.8170 Cl      
  32 F32            1.2851    -2.0240    -0.0041 F       
  33 F33            2.4046     5.6205    -1.3797 F       
  34 F34            2.1681     3.6376    -2.4893 F       
  35 H35           -0.9412     1.8901     0.0046 H       
  36 H36           -0.8803    -0.5720    -0.0069 H       
  37 H37            3.3847    -0.4835    -0.0299 H       
  38 H38           -0.0754     5.0478     1.8538 H       
  39 H39            4.7372     4.4058     2.7521 H       
  40 H40            0.9660     6.0884     3.8228 H       
  41 H41           -0.2976     3.6811    -1.4297 H       
  42 H42           -0.0072     5.1633    -0.4878 H       
  43 H43            0.9781     5.2662    -2.7945 H       
  44 H44            5.5072     4.4933     0.6583 H       
  45 H45            5.5118     2.4642    -1.4770 H       
  46 H46            6.7444     4.3973    -2.2215 H       
  47 H47            7.4427     4.6830    -0.5937 H       
  48 H48            8.2638     2.6989    -2.7073 H       
  49 H49            9.2572     3.4856    -1.4491 H       
  50 H50            7.2850     2.3755     1.0257 H       
  51 H51            6.4786     1.0133     0.1894 H       
  52 H52           10.2141     1.4353    -2.2549 H       
  53 H53            9.6899    -1.6024    -3.0079 H       
  54 H54           10.8005    -2.5903    -2.0286 H       
  55 H55            9.3508    -1.8765    -1.2822 H       
  56 H56           12.6129     0.6340    -2.4489 H       
  57 H57           12.7054    -1.1243    -2.7099 H       
  58 H58           11.5949    -0.1364    -3.6892 H       
  59 H59           10.7797    -0.7951     0.4589 H       
  60 H60           12.2294    -1.5090    -0.2876 H       
  61 H61           12.1369     0.2493    -0.0265 H       
@<TRIPOS>BOND
   1    1    2 ar
   2    1    6 ar
   3    1   35 1
   4    2    3 ar
   5    2   36 1
   6    3    4 ar
   7    3   32 1
   8    4    5 ar
   9    4   37 1
  10    5    6 ar
  11    5    8 1
  12    6    7 1
  13    7   12 1
  14    7   16 1
  15    8    9 2
  16    9   18 1
  17    9   10 1
  18   10   13 ar
  19   10   12 ar
  20   11   12 ar
  21   11   15 ar
  22   11   38 1
  23   13   14 ar
  24   13   39 1
  25   14   15 ar
  26   14   31 1
  27   15   40 1
  28   16   17 1
  29   16   41 1
  30   16   42 1
  31   17   33 1
  32   17   34 1
  33   17   43 1
  34   18   19 1
  35   18   44 1
  36   19   20 1
  37   19   23 1
  38   19   45 1
  39   20   21 1
  40   20   46 1
  41   20   47 1
  42   21   22 1
  43   21   48 1
  44   21   49 1
  45   22   23 1
  46   22   24 am
  47   23   50 1
  48   23   51 1
  49   24   25 2
  50   24   26 am
  51   26   27 1
  52   26   52 1
  53   27   28 1
  54   27   29 1
  55   27   30 1
  56   28   53 1
  57   28   54 1
  58   28   55 1
  59   29   56 1
  60   29   57 1
  61   29   58 1
  62   30   59 1
  63   30   60 1
  64   30   61 1

#	End of record

