#	Name: ASD07931963
#	Creating user name:	WinNT
#	Creation time:	15. 06. 2019 21:13

#	Modifying user name:	WinNT
#	Modification time:	15. 06. 2019 21:13

#	Program:	/corina/corina34_cracker 3.40 0067  02.08.2006

@<TRIPOS>MOLECULE
ASD07931963
  49   52    0    0    0
SMALL
NO_CHARGES


@<TRIPOS>ATOM
   1 C1             0.0599     1.5186     0.5826 C.ar    
   2 C2             0.1599     0.2600     1.1747 C.ar    
   3 N3             1.1244     2.0644    -0.0028 N.ar    
   4 N4             1.3097    -0.3889     1.1540 N.ar    
   5 C5             2.3686     0.1562     0.5706 C.ar    
   6 C6             2.2690     1.4160    -0.0221 C.ar    
   7 C7            -1.2286     2.2440     0.5995 C.2     
   8 O8            -2.2012     1.7432     1.1296 O.2     
   9 N9            -1.3246     3.4604     0.0271 N.am    
  10 O10            3.5480    -0.5103     0.5499 O.3     
  11 C11            3.5784    -1.7948     1.1754 C.3     
  12 C12           -2.5673     4.0983    -0.0561 C.ar    
  13 C13           -2.6488     5.4799     0.0609 C.ar    
  14 C14           -3.8758     6.1088    -0.0218 C.ar    
  15 C15           -5.0251     5.3635    -0.2215 C.ar    
  16 C16           -4.9473     3.9839    -0.3383 C.ar    
  17 C17           -3.7195     3.3515    -0.2616 C.ar    
  18 F18           -6.0700     3.2580    -0.5326 F       
  19 F19           -6.2241     5.9809    -0.3021 F       
  20 S20           -2.6488     9.7990    -1.8094 S.3     
  21 C21           -2.0143     9.0608    -0.3421 C.2     
  22 N22           -2.6579     8.1829     0.3248 N.2     
  23 C23           -3.9634     7.6078     0.1058 C.3     
  24 C24           -4.7435     8.2279    -1.0626 C.3     
  25 C25           -3.8618     8.5306    -2.2593 C.3     
  26 O26           -5.3565     9.3281     0.9698 O.3     
  27 C27           -4.8712     8.0165     1.3020 C.3     
  28 C28           -5.3347     9.5093    -0.4537 C.3     
  29 C29           -6.7574     9.7251    -0.9734 C.3     
  30 F30           -7.5554     8.6333    -0.6149 F       
  31 F31           -7.2863    10.8930    -0.4137 F       
  32 F32           -6.7315     9.8461    -2.3670 F       
  33 N33           -0.7717     9.4466     0.1047 N.pl3   
  34 H34           -0.7024    -0.1836     1.6500 H       
  35 H35            3.1321     1.8587    -0.4969 H       
  36 H36           -0.5323     3.8937    -0.3271 H       
  37 H37            3.3185    -1.6921     2.2289 H       
  38 H38            2.8609    -2.4539     0.6867 H       
  39 H39            4.5790    -2.2181     1.0876 H       
  40 H40           -1.7529     6.0624     0.2171 H       
  41 H41           -3.6577     2.2775    -0.3573 H       
  42 H42           -5.5514     7.5598    -1.3609 H       
  43 H43           -4.4779     8.8925    -3.0824 H       
  44 H44           -3.3418     7.6231    -2.5663 H       
  45 H45           -5.7028     7.3190     1.4020 H       
  46 H46           -4.2907     8.0497     2.2240 H       
  47 H47           -4.7094    10.3647    -0.7095 H       
  48 H48           -0.2648    10.1122    -0.3863 H       
  49 H49           -0.4024     9.0532     0.9107 H       
@<TRIPOS>BOND
   1    1    2 ar
   2    1    3 ar
   3    1    7 1
   4    2    4 ar
   5    2   34 1
   6    3    6 ar
   7    4    5 ar
   8    5    6 ar
   9    5   10 1
  10    6   35 1
  11    7    8 2
  12    7    9 am
  13    9   12 1
  14    9   36 1
  15   10   11 1
  16   11   37 1
  17   11   38 1
  18   11   39 1
  19   12   13 ar
  20   12   17 ar
  21   13   14 ar
  22   13   40 1
  23   14   15 ar
  24   14   23 1
  25   15   16 ar
  26   15   19 1
  27   16   17 ar
  28   16   18 1
  29   17   41 1
  30   20   21 1
  31   20   25 1
  32   21   22 2
  33   21   33 1
  34   22   23 1
  35   23   27 1
  36   23   24 1
  37   24   25 1
  38   24   28 1
  39   24   42 1
  40   25   43 1
  41   25   44 1
  42   26   27 1
  43   26   28 1
  44   27   45 1
  45   27   46 1
  46   28   29 1
  47   28   47 1
  48   29   30 1
  49   29   31 1
  50   29   32 1
  51   33   48 1
  52   33   49 1

#	End of record

