#	Name: ASD09116357
#	Creating user name:	WinNT
#	Creation time:	15. 06. 2019 21:21

#	Modifying user name:	WinNT
#	Modification time:	15. 06. 2019 21:21

#	Program:	/corina/corina34_cracker 3.40 0067  02.08.2006

@<TRIPOS>MOLECULE
ASD09116357
  68   74    0    0    0
SMALL
NO_CHARGES


@<TRIPOS>ATOM
   1 N1            -0.0590     1.4809     0.3626 N.2     
   2 N2            -0.0756     0.1230     0.7197 N.pl3   
   3 C3             1.1988     1.8501     0.3200 C.2     
   4 N4             1.9716     0.8024     0.6298 N.2     
   5 C5             1.2173    -0.2477     0.8737 C.2     
   6 N6             1.6656    -1.5066     1.2257 N.pl3   
   7 C7            -1.2024    -0.6849     0.8836 C.ar    
   8 N8             1.6571     3.1288     0.0030 N.pl3   
   9 C9             3.0221     3.4266     0.0972 C.ar    
  10 C10            3.5834     4.3833    -0.7391 C.ar    
  11 C11            3.8130     2.7698     1.0302 C.ar    
  12 C12            5.1599     3.0634     1.1242 C.ar    
  13 C13            5.7232     4.0146     0.2857 C.ar    
  14 C14            4.9307     4.6770    -0.6458 C.ar    
  15 N15            7.0892     4.3124     0.3817 N.3     
  16 F16            5.4787     5.6030    -1.4628 F       
  17 N17           -1.1041    -1.9972     0.7324 N.ar    
  18 N18           -2.1121    -2.7842     0.8627 N.ar    
  19 C19           -3.3177    -2.3246     1.1571 C.ar    
  20 C20           -3.5125    -0.9548     1.3561 C.ar    
  21 C21           -2.4324    -0.1098     1.2127 C.ar    
  22 C22           -4.4914    -3.2230     1.2546 C.ar    
  23 C23           -5.6577    -2.8863     0.5655 C.ar    
  24 C24           -5.6746    -1.6555    -0.2989 C.3     
  25 C25           -5.7990    -0.3870     0.5407 C.3     
  26 C26           -4.8684    -0.4449     1.7492 C.3     
  27 C27           -4.4458    -4.3830     2.0199 C.ar    
  28 C28           -5.5651    -5.1878     2.1088 C.ar    
  29 C29           -6.7254    -4.8398     1.4413 C.ar    
  30 C30           -6.7722    -3.6903     0.6716 C.ar    
  31 C31            7.7622     4.1548    -0.9333 C.3     
  32 C32            9.2560     3.9895    -0.5868 C.3     
  33 C33            9.2715     3.4351     0.8607 C.3     
  34 C34            7.7845     3.3426     1.2655 C.3     
  35 C35            9.8508     2.8591    -1.4544 C.3     
  36 C36           10.6715     2.0320    -0.4336 C.3     
  37 N37            9.8283     2.0670     0.7878 N.3     
  38 C38           10.6219     1.7572     1.9845 C.3     
  39 H39            2.6168    -1.6761     1.3120 H       
  40 H40            1.0291    -2.2207     1.3865 H       
  41 H41            1.0303     3.8117    -0.2828 H       
  42 H42            2.9674     4.8971    -1.4622 H       
  43 H43            3.3752     2.0293     1.6831 H       
  44 H44            5.7743     2.5525     1.8507 H       
  45 H45           -2.5350     0.9575     1.3425 H       
  46 H46           -4.7507    -1.6121    -0.8757 H       
  47 H47           -6.5196    -1.7133    -0.9850 H       
  48 H48           -5.5383     0.4759    -0.0720 H       
  49 H49           -6.8281    -0.2840     0.8849 H       
  50 H50           -5.2970    -1.1085     2.5002 H       
  51 H51           -4.7668     0.5548     2.1715 H       
  52 H52           -3.5401    -4.6532     2.5424 H       
  53 H53           -5.5340    -6.0908     2.7005 H       
  54 H54           -7.5999    -5.4685     1.5211 H       
  55 H55           -7.6817    -3.4237     0.1539 H       
  56 H56            7.3905     3.2680    -1.4468 H       
  57 H57            7.6101     5.0425    -1.5472 H       
  58 H58            9.8074     4.9252    -0.6791 H       
  59 H59            9.8355     4.0788     1.5357 H       
  60 H60            7.6577     3.6236     2.3110 H       
  61 H61            7.4067     2.3346     1.0942 H       
  62 H62            9.0586     2.2528    -1.8937 H       
  63 H63           10.4991     3.2682    -2.2292 H       
  64 H64           10.8002     1.0076    -0.7831 H       
  65 H65           11.6380     2.5003    -0.2474 H       
  66 H66           11.4197     2.4921     2.0917 H       
  67 H67            9.9794     1.7875     2.8645 H       
  68 H68           11.0555     0.7621     1.8854 H       
@<TRIPOS>BOND
   1    1    2 1
   2    1    3 2
   3    2    7 1
   4    2    5 1
   5    3    4 1
   6    3    8 1
   7    4    5 2
   8    5    6 1
   9    6   39 1
  10    6   40 1
  11    7   17 ar
  12    7   21 ar
  13    8    9 1
  14    8   41 1
  15    9   10 ar
  16    9   11 ar
  17   10   14 ar
  18   10   42 1
  19   11   12 ar
  20   11   43 1
  21   12   13 ar
  22   12   44 1
  23   13   14 ar
  24   13   15 1
  25   14   16 1
  26   15   31 1
  27   15   34 1
  28   17   18 ar
  29   18   19 ar
  30   19   20 ar
  31   19   22 1
  32   20   21 ar
  33   20   26 1
  34   21   45 1
  35   22   23 ar
  36   22   27 ar
  37   23   24 1
  38   23   30 ar
  39   24   25 1
  40   24   46 1
  41   24   47 1
  42   25   26 1
  43   25   48 1
  44   25   49 1
  45   26   50 1
  46   26   51 1
  47   27   28 ar
  48   27   52 1
  49   28   29 ar
  50   28   53 1
  51   29   30 ar
  52   29   54 1
  53   30   55 1
  54   31   32 1
  55   31   56 1
  56   31   57 1
  57   32   33 1
  58   32   35 1
  59   32   58 1
  60   33   34 1
  61   33   37 1
  62   33   59 1
  63   34   60 1
  64   34   61 1
  65   35   36 1
  66   35   62 1
  67   35   63 1
  68   36   37 1
  69   36   64 1
  70   36   65 1
  71   37   38 1
  72   38   66 1
  73   38   67 1
  74   38   68 1

#	End of record

