#	Name: ASD05430610
#	Creating user name:	WinNT
#	Creation time:	15. 06. 2019 21:00

#	Modifying user name:	WinNT
#	Modification time:	15. 06. 2019 21:00

#	Program:	/corina/corina34_cracker 3.40 0067  02.08.2006

@<TRIPOS>MOLECULE
ASD05430610
  24   24    0    0    0
SMALL
NO_CHARGES


@<TRIPOS>ATOM
   1 N1            -0.0157     1.3041     0.0092 N.2     
   2 C2             0.0021    -0.0041     0.0020 C.2     
   3 N3             1.2855    -0.4038    -0.0124 N.pl3   
   4 N4             2.0638     0.7653    -0.0135 N.2     
   5 C5             1.2314     1.7731    -0.0002 C.2     
   6 C6             1.7750    -1.7845    -0.0245 C.3     
   7 C7             1.8407    -2.3149     1.4091 C.3     
   8 C8             0.8239    -2.6556    -0.8475 C.3     
   9 C9             1.6194     3.2293     0.0039 C.3     
  10 O10            1.7292     3.6968    -1.3420 O.3     
  11 C11            2.0949     5.0739    -1.4509 C.3     
  12 H12           -0.8634    -0.6501     0.0071 H       
  13 H13            2.7701    -1.8133    -0.4685 H       
  14 H14            0.8456    -2.2861     1.8531 H       
  15 H15            2.2049    -3.3422     1.4002 H       
  16 H16            2.5183    -1.6943     1.9955 H       
  17 H17            0.7771    -2.2778    -1.8688 H       
  18 H18            1.1882    -3.6829    -0.8565 H       
  19 H19           -0.1711    -2.6268    -0.4035 H       
  20 H20            0.8580     3.8067     0.5282 H       
  21 H21            2.5778     3.3485     0.5093 H       
  22 H22            1.3433     5.6896    -0.9568 H       
  23 H23            3.0632     5.2314    -0.9757 H       
  24 H24            2.1572     5.3511    -2.5032 H       
@<TRIPOS>BOND
   1    1    2 2
   2    1    5 1
   3    2    3 1
   4    2   12 1
   5    3    4 1
   6    3    6 1
   7    4    5 2
   8    5    9 1
   9    6    7 1
  10    6    8 1
  11    6   13 1
  12    7   14 1
  13    7   15 1
  14    7   16 1
  15    8   17 1
  16    8   18 1
  17    8   19 1
  18    9   10 1
  19    9   20 1
  20    9   21 1
  21   10   11 1
  22   11   22 1
  23   11   23 1
  24   11   24 1

#	End of record

