#	Name: ASD01881800
#	Creating user name:	WinNT
#	Creation time:	15. 06. 2019 19:43

#	Modifying user name:	WinNT
#	Modification time:	15. 06. 2019 19:43

#	Program:	/corina/corina34_cracker 3.40 0067  02.08.2006

@<TRIPOS>MOLECULE
ASD01881800
  41   44    0    0    0
SMALL
NO_CHARGES


@<TRIPOS>ATOM
   1 N1            -0.0154     1.2839     0.0091 N.pl3   
   2 N2             0.0021    -0.0041     0.0020 N.2     
   3 N3             1.2033    -0.4649    -0.0119 N.2     
   4 C4             2.0741     0.5645    -0.0147 C.ar    
   5 C5             1.2843     1.7298    -0.0009 C.ar    
   6 C6             3.4670     0.6759    -0.0271 C.ar    
   7 C7             4.0484     1.9285    -0.0255 C.ar    
   8 C8             3.2560     3.0739    -0.0118 C.ar    
   9 C9             1.8924     2.9784    -0.0004 C.ar    
  10 C10           -1.2133     2.1272     0.0196 C.3     
  11 C11           -1.6228     2.4135     1.4657 C.3     
  12 C12           -2.7884     3.3784     1.6921 C.3     
  13 C13           -2.9777     1.8797     1.9352 C.3     
  14 O14            5.4033     2.0444    -0.0370 O.3     
  15 C15            5.9411     3.3683    -0.0346 C.3     
  16 C16            7.4694     3.2979    -0.0487 C.3     
  17 C17            8.0453     4.7154    -0.0462 C.3     
  18 N18            9.5087     4.6480    -0.0596 N.pl3   
  19 N19           10.3103     3.9557     0.8571 N.2     
  20 C20           11.5622     4.1292     0.5188 C.2     
  21 C21           11.5986     4.9369    -0.6232 C.2     
  22 C22           10.3227     5.2374    -0.9613 C.2     
  23 Br23          13.1545     5.5028    -1.5368 Br      
  24 Br24           4.5472    -0.8761    -0.0451 Br      
  25 H25            3.7236     4.0474    -0.0103 H       
  26 H26            1.2882     3.8735     0.0099 H       
  27 H27           -1.0007     3.0667    -0.4906 H       
  28 H28           -2.0254     1.6113    -0.4926 H       
  29 H29           -0.8089     2.4286     2.1906 H       
  30 H30           -2.7415     4.0280     2.5661 H       
  31 H31           -3.2635     3.8093     0.8108 H       
  32 H32           -3.5773     1.3246     1.2137 H       
  33 H33           -3.0553     1.5434     2.9691 H       
  34 H34            5.5939     3.9031    -0.9187 H       
  35 H35            5.6098     3.8935     0.8612 H       
  36 H36            7.8167     2.7631     0.8353 H       
  37 H37            7.8008     2.7728    -0.9445 H       
  38 H38            7.6981     5.2502    -0.9302 H       
  39 H39            7.7140     5.2406     0.8496 H       
  40 H40           12.4196     3.7201     1.0325 H       
  41 H41           10.0118     5.8419    -1.8005 H       
@<TRIPOS>BOND
   1    1    2 1
   2    1    5 1
   3    1   10 1
   4    2    3 2
   5    3    4 1
   6    4    5 ar
   7    4    6 ar
   8    5    9 ar
   9    6    7 ar
  10    6   24 1
  11    7    8 ar
  12    7   14 1
  13    8    9 ar
  14    8   25 1
  15    9   26 1
  16   10   11 1
  17   10   27 1
  18   10   28 1
  19   11   12 1
  20   11   13 1
  21   11   29 1
  22   12   13 1
  23   12   30 1
  24   12   31 1
  25   13   32 1
  26   13   33 1
  27   14   15 1
  28   15   16 1
  29   15   34 1
  30   15   35 1
  31   16   17 1
  32   16   36 1
  33   16   37 1
  34   17   18 1
  35   17   38 1
  36   17   39 1
  37   18   19 1
  38   18   22 1
  39   19   20 2
  40   20   21 1
  41   20   40 1
  42   21   22 2
  43   21   23 1
  44   22   41 1

#	End of record

