#	Name: ASD01811962
#	Creating user name:	WinNT
#	Creation time:	15. 06. 2019 19:27

#	Modifying user name:	WinNT
#	Modification time:	15. 06. 2019 19:27

#	Program:	/corina/corina34_cracker 3.40 0067  02.08.2006

@<TRIPOS>MOLECULE
ASD01811962
  40   43    0    0    0
SMALL
NO_CHARGES


@<TRIPOS>ATOM
   1 C1            -0.0166     1.3756     0.0096 C.ar    
   2 C2             0.0021    -0.0041     0.0020 C.ar    
   3 C3             1.2056    -0.6861    -0.0127 C.ar    
   4 C4             2.4018     0.0121    -0.0199 C.ar    
   5 C5             1.1847     2.0862     0.0020 C.ar    
   6 C6             1.4851     3.5308     0.0064 C.2     
   7 C7             2.3944     1.3874    -0.0129 C.ar    
   8 C8             3.4874     2.4267    -0.0174 C.3     
   9 N9             2.8143     3.7305    -0.0055 N.am    
  10 O10            0.6500     4.4139     0.0183 O.2     
  11 C11            3.4811     5.0350    -0.0061 C.3     
  12 C12            3.7240     5.4756     1.4144 C.ar    
  13 C13            2.8692     6.3854     2.0096 C.ar    
  14 C14            4.7994     4.9639     2.1217 C.ar    
  15 C15            5.0256     5.3657     3.4253 C.ar    
  16 C16            4.1699     6.2859     4.0253 C.ar    
  17 C17            3.0870     6.7929     3.3101 C.ar    
  18 C18            4.4076     6.7213     5.4248 C.2     
  19 C19            5.4537     6.2909     6.2640 C.2     
  20 N20            5.3262     6.8967     7.4148 N.2     
  21 N21            4.2032     7.7308     7.3564 N.pl3   
  22 C22            3.6559     7.6154     6.1296 C.2     
  23 C23            3.7107     8.5853     8.4397 C.3     
  24 F24            5.6279     4.0708     1.5375 F       
  25 H25           -0.9584     1.9043     0.0169 H       
  26 H26           -0.9273    -0.5541     0.0079 H       
  27 H27            1.2124    -1.7661    -0.0182 H       
  28 H28            3.3398    -0.5231    -0.0306 H       
  29 H29            4.1109     2.3184     0.8700 H       
  30 H30            4.0948     2.3275    -0.9170 H       
  31 H31            4.4338     4.9558    -0.5299 H       
  32 H32            2.8490     5.7659    -0.5103 H       
  33 H33            2.0296     6.7782     1.4553 H       
  34 H34            5.8638     4.9665     3.9770 H       
  35 H35            2.4188     7.5040     3.7729 H       
  36 H36            6.2262     5.5831     6.0023 H       
  37 H37            2.7798     8.1350     5.7707 H       
  38 H38            4.1779     9.5675     8.3687 H       
  39 H39            2.6290     8.6906     8.3563 H       
  40 H40            3.9587     8.1336     9.4002 H       
@<TRIPOS>BOND
   1    1    2 ar
   2    1    5 ar
   3    1   25 1
   4    2    3 ar
   5    2   26 1
   6    3    4 ar
   7    3   27 1
   8    4    7 ar
   9    4   28 1
  10    5    7 ar
  11    5    6 1
  12    6    9 am
  13    6   10 2
  14    7    8 1
  15    8    9 1
  16    8   29 1
  17    8   30 1
  18    9   11 1
  19   11   12 1
  20   11   31 1
  21   11   32 1
  22   12   14 ar
  23   12   13 ar
  24   13   17 ar
  25   13   33 1
  26   14   15 ar
  27   14   24 1
  28   15   16 ar
  29   15   34 1
  30   16   17 ar
  31   16   18 1
  32   17   35 1
  33   18   19 1
  34   18   22 2
  35   19   20 2
  36   19   36 1
  37   20   21 1
  38   21   22 1
  39   21   23 1
  40   22   37 1
  41   23   38 1
  42   23   39 1
  43   23   40 1

#	End of record

