#	Name: ASD01811476
#	Creating user name:	WinNT
#	Creation time:	15. 06. 2019 19:26

#	Modifying user name:	WinNT
#	Modification time:	15. 06. 2019 19:26

#	Program:	/corina/corina34_cracker 3.40 0067  02.08.2006

@<TRIPOS>MOLECULE
ASD01811476
  75   80    0    0    0
SMALL
NO_CHARGES


@<TRIPOS>ATOM
   1 C1            -0.5786     1.8293     0.3957 C.3     
   2 C2            -0.4065     0.3309     0.3630 C.2     
   3 C3             0.7829    -0.2937     0.2049 C.2     
   4 C4             2.1034     0.4193     0.0473 C.3     
   5 C5             1.8355     1.8751    -0.3533 C.3     
   6 N6             0.7678     2.4216     0.4976 N.am    
   7 C7            -0.7208    -1.8355     0.3818 C.2     
   8 N8            -1.3608    -0.6319     0.4789 N.pl3   
   9 N9             0.5657    -1.6098     0.2170 N.2     
  10 C10            1.0133     3.4383     1.3477 C.2     
  11 O11            2.1288     3.9147     1.4190 O.2     
  12 O12            0.0225     3.9259     2.1179 O.3     
  13 C13           -1.3641    -3.1658     0.4506 C.ar    
  14 C14           -0.6193    -4.3177     0.1885 C.ar    
  15 C15           -1.2181    -5.5601     0.2523 C.ar    
  16 C16           -2.5558    -5.6729     0.5758 C.ar    
  17 C17           -3.3121    -4.5291     0.8401 C.ar    
  18 C18           -2.7124    -3.2725     0.7826 C.ar    
  19 C19           -3.2011    -7.0331     0.6431 C.3     
  20 C20            0.8412    -4.2043    -0.1652 C.3     
  21 C21            1.7810    -4.7862     0.9039 C.3     
  22 C22            2.6236    -5.3463    -0.2542 C.3     
  23 C23            1.3378    -5.3220    -1.0974 C.3     
  24 C24           -4.7447    -4.6514     1.1853 C.2     
  25 O25           -5.5035    -5.2318     0.4338 O.2     
  26 N26           -5.2091    -4.1193     2.3332 N.am    
  27 C27           -6.6099    -4.3094     2.7336 C.3     
  28 C28           -6.6433    -4.8874     4.1519 C.3     
  29 C29           -5.8398    -3.9807     5.0870 C.3     
  30 C30           -4.3829    -3.9275     4.6213 C.3     
  31 C31           -4.3225    -3.3433     3.2111 C.3     
  32 F32           -6.3830    -2.6917     5.0666 F       
  33 C33           -5.8987    -4.5280     6.4899 C.ar    
  34 C34           -5.5190    -3.7321     7.5561 C.ar    
  35 C35           -5.5704    -4.2266     8.8428 C.ar    
  36 C36           -6.0075    -5.5335     9.0680 C.ar    
  37 C37           -6.3896    -6.3311     7.9875 C.ar    
  38 C38           -6.3378    -5.8221     6.7063 C.ar    
  39 C39           -6.0630    -6.0537    10.4010 C.1     
  40 N40           -6.1071    -6.4663    11.4585 N.1     
  41 C41            0.3592     5.0209     3.0100 C.3     
  42 H42           -1.0643     2.1671    -0.5198 H       
  43 H43           -1.1762     2.1154     1.2612 H       
  44 H44            2.6469     0.3944     0.9918 H       
  45 H45            2.6926    -0.0704    -0.7282 H       
  46 H46            2.7439     2.4626    -0.2200 H       
  47 H47            1.5253     1.9143    -1.3975 H       
  48 H48           -2.3121    -0.4912     0.6063 H       
  49 H49           -0.6377    -6.4477     0.0481 H       
  50 H50           -3.2917    -2.3851     0.9905 H       
  51 H51           -3.0386    -7.4639     1.6311 H       
  52 H52           -4.2713    -6.9371     0.4601 H       
  53 H53           -2.7600    -7.6823    -0.1133 H       
  54 H54            1.1206    -3.2034    -0.4940 H       
  55 H55            2.2967    -4.0270     1.4918 H       
  56 H56            1.3177    -5.5573     1.5195 H       
  57 H57            3.3911    -4.6581    -0.6083 H       
  58 H58            3.0061    -6.3502    -0.0701 H       
  59 H59            0.7533    -6.2395    -1.0290 H       
  60 H60            1.4958    -4.9953    -2.1252 H       
  61 H61           -7.1278    -3.3505     2.7175 H       
  62 H62           -7.0959    -5.0011     2.0456 H       
  63 H63           -7.6754    -4.9435     4.4977 H       
  64 H64           -6.2056    -5.8857     4.1483 H       
  65 H65           -3.8063    -3.3003     5.3012 H       
  66 H66           -3.9665    -4.9348     4.6133 H       
  67 H67           -3.2998    -3.3978     2.8380 H       
  68 H68           -4.6501    -2.3040     3.2348 H       
  69 H69           -5.1811    -2.7214     7.3804 H       
  70 H70           -5.2730    -3.6045     9.6740 H       
  71 H71           -6.7286    -7.3428     8.1547 H       
  72 H72           -6.6369    -6.4365     5.8700 H       
  73 H73            0.7198     5.8676     2.4259 H       
  74 H74           -0.5268     5.3178     3.5714 H       
  75 H75            1.1372     4.6994     3.7024 H       
@<TRIPOS>BOND
   1    1    2 1
   2    1    6 1
   3    1   42 1
   4    1   43 1
   5    2    3 2
   6    2    8 1
   7    3    4 1
   8    3    9 1
   9    4    5 1
  10    4   44 1
  11    4   45 1
  12    5    6 1
  13    5   46 1
  14    5   47 1
  15    6   10 am
  16    7    8 1
  17    7    9 2
  18    7   13 1
  19    8   48 1
  20   10   11 2
  21   10   12 1
  22   12   41 1
  23   13   14 ar
  24   13   18 ar
  25   14   15 ar
  26   14   20 1
  27   15   16 ar
  28   15   49 1
  29   16   17 ar
  30   16   19 1
  31   17   18 ar
  32   17   24 1
  33   18   50 1
  34   19   51 1
  35   19   52 1
  36   19   53 1
  37   20   21 1
  38   20   23 1
  39   20   54 1
  40   21   22 1
  41   21   55 1
  42   21   56 1
  43   22   23 1
  44   22   57 1
  45   22   58 1
  46   23   59 1
  47   23   60 1
  48   24   25 2
  49   24   26 am
  50   26   27 1
  51   26   31 1
  52   27   28 1
  53   27   61 1
  54   27   62 1
  55   28   29 1
  56   28   63 1
  57   28   64 1
  58   29   30 1
  59   29   32 1
  60   29   33 1
  61   30   31 1
  62   30   65 1
  63   30   66 1
  64   31   67 1
  65   31   68 1
  66   33   34 ar
  67   33   38 ar
  68   34   35 ar
  69   34   69 1
  70   35   36 ar
  71   35   70 1
  72   36   37 ar
  73   36   39 1
  74   37   38 ar
  75   37   71 1
  76   38   72 1
  77   39   40 3
  78   41   73 1
  79   41   74 1
  80   41   75 1

#	End of record

