#	Name: ASD01520007
#	Creating user name:	WinNT
#	Creation time:	15. 06. 2019 19:21

#	Modifying user name:	WinNT
#	Modification time:	15. 06. 2019 19:21

#	Program:	/corina/corina34_cracker 3.40 0067  02.08.2006

@<TRIPOS>MOLECULE
ASD01520007
  53   52    0    0    0
SMALL
NO_CHARGES


@<TRIPOS>ATOM
   1 C1            -0.6323     1.9184    -0.0771 C.3     
   2 C2            -0.2584     0.4487    -0.2798 C.3     
   3 C3            -1.4736    -0.4141    -0.0566 C.2     
   4 C4             0.6014     2.7945    -0.3036 C.3     
   5 C5             0.2275     4.2642    -0.1009 C.3     
   6 C6             1.4613     5.1402    -0.3275 C.3     
   7 C7             1.0874     6.6099    -0.1247 C.3     
   8 O8             2.2397     7.4281    -0.3363 O.3     
   9 C9            -1.8393    -1.2793    -0.9698 C.2     
  10 C10           -0.9564    -1.5322    -2.1646 C.3     
  11 C11           -0.6971    -3.0342    -2.2983 C.3     
  12 C12            0.1993    -3.2910    -3.5114 C.3     
  13 C13            0.4586    -4.7929    -3.6450 C.3     
  14 C14            1.3550    -5.0497    -4.8581 C.3     
  15 C15            1.6143    -6.5516    -4.9918 C.3     
  16 C16            2.5107    -6.8084    -6.2048 C.3     
  17 C17            2.7700    -8.3103    -6.3385 C.3     
  18 S18            1.9821     8.9177    -0.1598 S.o2    
  19 O19            3.1588     9.5831    -0.5977 O.2     
  20 O20            0.6962     9.1705    -0.7091 O.2     
  21 O21            1.8702     9.1815     1.3350 O.3     
  22 H22           -1.4109     2.1966    -0.7874 H       
  23 H23           -0.9991     2.0632     0.9391 H       
  24 H24            0.1083     0.3040    -1.2960 H       
  25 H25            0.5201     0.1706     0.4305 H       
  26 H26           -2.0430    -0.3193     0.8561 H       
  27 H27            1.3800     2.5163     0.4067 H       
  28 H28            0.9681     2.6497    -1.3198 H       
  29 H29           -0.5510     4.5423    -0.8112 H       
  30 H30           -0.1392     4.4089     0.9153 H       
  31 H31            2.2398     4.8620     0.3829 H       
  32 H32            1.8280     4.9955    -1.3437 H       
  33 H33            0.3088     6.8881    -0.8350 H       
  34 H34            0.7206     6.7547     0.8915 H       
  35 H35           -2.7735    -1.8113    -0.8664 H       
  36 H36           -1.4504    -1.1673    -3.0651 H       
  37 H37           -0.0087    -1.0102    -2.0331 H       
  38 H38           -0.2031    -3.3991    -1.3978 H       
  39 H39           -1.6448    -3.5562    -2.4298 H       
  40 H40           -0.2947    -2.9260    -4.4119 H       
  41 H41            1.1470    -2.7689    -3.3799 H       
  42 H42            0.9526    -5.1578    -2.7445 H       
  43 H43           -0.4891    -5.3150    -3.7765 H       
  44 H44            0.8610    -4.6847    -5.7586 H       
  45 H45            2.3027    -4.5276    -4.7266 H       
  46 H46            2.1083    -6.9166    -4.0913 H       
  47 H47            0.6666    -7.0737    -5.1233 H       
  48 H48            2.0167    -6.4434    -7.1053 H       
  49 H49            3.4584    -6.2863    -6.0733 H       
  50 H50            3.2640    -8.6753    -5.4380 H       
  51 H51            1.8223    -8.8324    -6.4700 H       
  52 H52            3.4086    -8.4933    -7.2027 H       
  53 H53            1.7049    10.1074     1.5597 H       
@<TRIPOS>BOND
   1    1    2 1
   2    1    4 1
   3    1   22 1
   4    1   23 1
   5    2    3 1
   6    2   24 1
   7    2   25 1
   8    3    9 2
   9    3   26 1
  10    4    5 1
  11    4   27 1
  12    4   28 1
  13    5    6 1
  14    5   29 1
  15    5   30 1
  16    6    7 1
  17    6   31 1
  18    6   32 1
  19    7    8 1
  20    7   33 1
  21    7   34 1
  22    8   18 1
  23    9   10 1
  24    9   35 1
  25   10   11 1
  26   10   36 1
  27   10   37 1
  28   11   12 1
  29   11   38 1
  30   11   39 1
  31   12   13 1
  32   12   40 1
  33   12   41 1
  34   13   14 1
  35   13   42 1
  36   13   43 1
  37   14   15 1
  38   14   44 1
  39   14   45 1
  40   15   16 1
  41   15   46 1
  42   15   47 1
  43   16   17 1
  44   16   48 1
  45   16   49 1
  46   17   50 1
  47   17   51 1
  48   17   52 1
  49   18   19 2
  50   18   20 2
  51   18   21 1
  52   21   53 1

#	End of record

