#	Name: ASD03430504
#	Creating user name:	WinNT
#	Creation time:	15. 06. 2019 20:41

#	Modifying user name:	WinNT
#	Modification time:	15. 06. 2019 20:41

#	Program:	/corina/corina34_cracker 3.40 0067  02.08.2006

@<TRIPOS>MOLECULE
ASD03430504
  74   78    0    0    0
SMALL
NO_CHARGES


@<TRIPOS>ATOM
   1 O1            -1.3172     1.1504    -0.2535 O.3     
   2 C2            -1.7105    -0.2342    -0.3056 C.3     
   3 C3            -0.5549    -0.8808    -1.0814 C.3     
   4 C4             0.5928     0.0627    -0.8402 C.ar    
   5 C5             0.0399     1.2390    -0.3390 C.ar    
   6 C6             0.8855     2.2931    -0.0093 C.ar    
   7 C7             2.2532     2.1738    -0.1874 C.ar    
   8 C8             2.7900     1.0002    -0.6970 C.ar    
   9 C9             1.9540    -0.0522    -1.0209 C.ar    
  10 N10           -0.4014    -3.0892    -1.6518 N.am    
  11 C11           -0.2620    -2.2696    -0.5907 C.2     
  12 C12           -0.8726    -1.0328    -2.5393 C.ar    
  13 C13           -1.2176    -0.1466    -3.5355 C.ar    
  14 C14           -1.4553    -0.6055    -4.8189 C.ar    
  15 C15           -1.3453    -1.9553    -5.0991 C.ar    
  16 C16           -0.9999    -2.8466    -4.1047 C.ar    
  17 C17           -0.7590    -2.3942    -2.8097 C.ar    
  18 O18            0.0407    -2.5908     0.5390 O.2     
  19 O19            3.0719     3.2087     0.1372 O.3     
  20 Si20           3.4213     3.3047     1.7275 Si      
  21 C21            4.1647     1.6946     2.2982 C.3     
  22 C22            3.0832     0.6124     2.3187 C.3     
  23 C23            5.2824     1.2805     1.3390 C.3     
  24 C24            4.6377     4.6863     2.0138 C.3     
  25 C25            5.8021     4.5527     1.0302 C.3     
  26 C26            3.9412     6.0317     1.7998 C.3     
  27 C27            1.8605     3.6427     2.6869 C.3     
  28 C28            2.2123     3.9330     4.1473 C.3     
  29 C29            1.1436     4.8528     2.0847 C.3     
  30 C30           -0.2005    -4.5393    -1.5973 C.3     
  31 O31           -1.9799    -4.7902     0.0307 O.3     
  32 C32           -1.5248    -5.2252    -1.2560 C.3     
  33 C33           -1.3203    -6.7538    -1.1862 C.3     
  34 C34           -2.2119    -7.1509     0.0218 C.3     
  35 C35           -2.0458    -5.9074     0.9312 C.3     
  36 H36           -1.7851    -0.6532     0.6979 H       
  37 H37           -2.6508    -0.3492    -0.8449 H       
  38 H38            0.4730     3.2091     0.3873 H       
  39 H39            3.8566     0.9092    -0.8401 H       
  40 H40            2.3691    -0.9673    -1.4168 H       
  41 H41           -1.3030     0.9072    -3.3146 H       
  42 H42           -1.7264     0.0890    -5.6003 H       
  43 H43           -1.5311    -2.3132    -6.1010 H       
  44 H44           -0.9163    -3.8993    -4.3311 H       
  45 H45            4.5737     1.8185     3.3009 H       
  46 H46            2.6059     0.5572     1.3403 H       
  47 H47            3.5366    -0.3498     2.5567 H       
  48 H48            2.3368     0.8590     3.0737 H       
  49 H49            4.9296     1.3665     0.3112 H       
  50 H50            6.1445     1.9318     1.4829 H       
  51 H51            5.5694     0.2482     1.5394 H       
  52 H52            5.0162     4.6315     3.0345 H       
  53 H53            5.4196     4.5716     0.0097 H       
  54 H54            6.4957     5.3812     1.1736 H       
  55 H55            6.3204     3.6102     1.2066 H       
  56 H56            3.3947     6.0119     0.8569 H       
  57 H57            3.2459     6.2152     2.6189 H       
  58 H58            4.6867     6.8263     1.7710 H       
  59 H59            1.2073     2.7715     2.6368 H       
  60 H60            2.7909     4.8550     4.2052 H       
  61 H61            1.2958     4.0422     4.7270 H       
  62 H62            2.8009     3.1088     4.5500 H       
  63 H63            1.7281     5.7530     2.2749 H       
  64 H64            1.0332     4.7117     1.0095 H       
  65 H65            0.1590     4.9558     2.5406 H       
  66 H66            0.1533    -4.8937    -2.5655 H       
  67 H67            0.5387    -4.7752    -0.8318 H       
  68 H68           -2.2721    -4.9863    -2.0127 H       
  69 H69           -1.6693    -7.2340    -2.1004 H       
  70 H70           -0.2753    -6.9969    -0.9936 H       
  71 H71           -3.2507    -7.2794    -0.2822 H       
  72 H72           -1.8337    -8.0486     0.5109 H       
  73 H73           -1.1250    -5.9820     1.5096 H       
  74 H74           -2.9040    -5.8075     1.5958 H       
@<TRIPOS>BOND
   1    1    2 1
   2    1    5 1
   3    2    3 1
   4    2   36 1
   5    2   37 1
   6    3    4 1
   7    3   11 1
   8    3   12 1
   9    4    5 ar
  10    4    9 ar
  11    5    6 ar
  12    6    7 ar
  13    6   38 1
  14    7    8 ar
  15    7   19 1
  16    8    9 ar
  17    8   39 1
  18    9   40 1
  19   10   11 am
  20   10   17 1
  21   10   30 1
  22   11   18 2
  23   12   13 ar
  24   12   17 ar
  25   13   14 ar
  26   13   41 1
  27   14   15 ar
  28   14   42 1
  29   15   16 ar
  30   15   43 1
  31   16   17 ar
  32   16   44 1
  33   19   20 1
  34   20   21 1
  35   20   24 1
  36   20   27 1
  37   21   22 1
  38   21   23 1
  39   21   45 1
  40   22   46 1
  41   22   47 1
  42   22   48 1
  43   23   49 1
  44   23   50 1
  45   23   51 1
  46   24   25 1
  47   24   26 1
  48   24   52 1
  49   25   53 1
  50   25   54 1
  51   25   55 1
  52   26   56 1
  53   26   57 1
  54   26   58 1
  55   27   28 1
  56   27   29 1
  57   27   59 1
  58   28   60 1
  59   28   61 1
  60   28   62 1
  61   29   63 1
  62   29   64 1
  63   29   65 1
  64   30   32 1
  65   30   66 1
  66   30   67 1
  67   31   32 1
  68   31   35 1
  69   32   33 1
  70   32   68 1
  71   33   34 1
  72   33   69 1
  73   33   70 1
  74   34   35 1
  75   34   71 1
  76   34   72 1
  77   35   73 1
  78   35   74 1

#	End of record

