#	Name: ASD03430873
#	Creating user name:	WinNT
#	Creation time:	15. 06. 2019 20:41

#	Modifying user name:	WinNT
#	Modification time:	15. 06. 2019 20:41

#	Program:	/corina/corina34_cracker 3.40 0067  02.08.2006

@<TRIPOS>MOLECULE
ASD03430873
  34   38    0    0    0
SMALL
NO_CHARGES


@<TRIPOS>ATOM
   1 O1            -0.0164     1.3592     0.0095 O.3     
   2 C2             0.0021    -0.0041     0.0020 C.ar    
   3 C3             1.2395    -0.4883    -0.4143 C.ar    
   4 C4             2.1038     0.7141    -0.6816 C.3     
   5 C5             1.3357     1.8555    -0.0007 C.3     
   6 O6            -1.6131    -3.3139     0.5379 O.3     
   7 C7            -0.7777    -2.2762     0.2537 C.ar    
   8 C8             0.4621    -2.7337    -0.1762 C.ar    
   9 C9             0.4013    -4.2487    -0.1796 C.3     
  10 C10           -1.1217    -4.5070    -0.0955 C.3     
  11 C11            1.4628    -1.8460    -0.5049 C.ar    
  12 C12           -1.0002    -0.9068     0.3370 C.ar    
  13 N13            4.3405     0.7043    -1.1533 N.am    
  14 C14            3.4875     0.5579    -0.1197 C.2     
  15 C15            2.2957     0.9660    -2.1477 C.ar    
  16 C16            1.4305     1.1885    -3.1956 C.ar    
  17 C17            1.9252     1.3937    -4.4716 C.ar    
  18 C18            3.2899     1.3751    -4.6920 C.ar    
  19 C19            4.1618     1.1529    -3.6448 C.ar    
  20 C20            3.6723     0.9453    -2.3568 C.ar    
  21 O21            3.7803     0.3430     1.0375 O.2     
  22 Cl22           5.8735     1.1314    -3.9337 Cl      
  23 H23            1.4070     2.7727    -0.5853 H       
  24 H24            1.6977     2.0136     1.0152 H       
  25 H25            0.8147    -4.6531    -1.1036 H       
  26 H26            0.9150    -4.6612     0.6887 H       
  27 H27           -1.3313    -5.3838     0.5172 H       
  28 H28           -1.5498    -4.6195    -1.0916 H       
  29 H29            2.4232    -2.2138    -0.8345 H       
  30 H30           -1.9615    -0.5405     0.6658 H       
  31 H31            5.3054     0.6487    -1.0712 H       
  32 H32            0.3647     1.2025    -3.0214 H       
  33 H33            1.2466     1.5677    -5.2935 H       
  34 H34            3.6758     1.5348    -5.6880 H       
@<TRIPOS>BOND
   1    1    2 1
   2    1    5 1
   3    2    3 ar
   4    2   12 ar
   5    3    4 1
   6    3   11 ar
   7    4    5 1
   8    4   14 1
   9    4   15 1
  10    5   23 1
  11    5   24 1
  12    6    7 1
  13    6   10 1
  14    7    8 ar
  15    7   12 ar
  16    8    9 1
  17    8   11 ar
  18    9   10 1
  19    9   25 1
  20    9   26 1
  21   10   27 1
  22   10   28 1
  23   11   29 1
  24   12   30 1
  25   13   14 am
  26   13   20 1
  27   13   31 1
  28   14   21 2
  29   15   16 ar
  30   15   20 ar
  31   16   17 ar
  32   16   32 1
  33   17   18 ar
  34   17   33 1
  35   18   19 ar
  36   18   34 1
  37   19   20 ar
  38   19   22 1

#	End of record

