#	Name: ASD00192011
#	Creating user name:	WinNT
#	Creation time:	15. 06. 2019 18:33

#	Modifying user name:	WinNT
#	Modification time:	15. 06. 2019 18:33

#	Program:	/corina/corina34_cracker 3.40 0067  02.08.2006

@<TRIPOS>MOLECULE
ASD00192011
  39   43    0    0    0
SMALL
NO_CHARGES


@<TRIPOS>ATOM
   1 N1            -0.0157     1.3095     0.0092 N.ar    
   2 C2             0.0021    -0.0041     0.0020 C.ar    
   3 C3             1.2134    -0.7320    -0.0135 C.ar    
   4 C4             2.4242    -0.0324    -0.0213 C.ar    
   5 C5             2.3718     1.4232    -0.0130 C.ar    
   6 C6             3.5322     2.2031    -0.0194 C.ar    
   7 C7             3.4319     3.5642    -0.0107 C.ar    
   8 C8             2.1875     4.1845     0.0049 C.ar    
   9 C9             1.0376     3.4520     0.0116 C.ar    
  10 C10            1.1021     2.0507     0.0025 C.ar    
  11 C11            2.8161    -2.1952    -0.0359 C.2     
  12 N12            1.5218    -2.0508    -0.0231 N.2     
  13 N13            3.4163    -0.9735    -0.0354 N.pl3   
  14 N14           -1.1991    -0.6945     0.0102 N.pl3   
  15 O15           -2.5344     1.3374     0.0339 O.3     
  16 C16           -2.4002     0.0022     0.0259 C.2     
  17 C17           -3.6490    -0.5548     0.0358 C.2     
  18 C18           -4.5870     0.5739     0.0510 C.2     
  19 C19           -3.8330     1.6852     0.0489 C.2     
  20 C20           -3.9854    -1.9981     0.0316 C.ar    
  21 C21           -4.8898    -2.5085     0.9623 C.ar    
  22 C22           -5.1995    -3.8539     0.9539 C.ar    
  23 C23           -4.6131    -4.6961     0.0225 C.ar    
  24 C24           -3.7147    -4.1939    -0.9027 C.ar    
  25 C25           -3.4031    -2.8494    -0.9066 C.ar    
  26 Cl26          -5.0064    -6.3870     0.0167 Cl      
  27 Cl27          -6.3247    -4.4917     2.1119 Cl      
  28 H28            4.5034     1.7307    -0.0308 H       
  29 H29            4.3287     4.1660    -0.0157 H       
  30 H30            2.1310     5.2630     0.0123 H       
  31 H31            0.0791     3.9496     0.0241 H       
  32 H32            3.3353    -3.1421    -0.0453 H       
  33 H33            4.3710    -0.8022    -0.0439 H       
  34 H34           -1.2010    -1.6644     0.0051 H       
  35 H35           -5.6657     0.5213     0.0610 H       
  36 H36           -4.2099     2.6972     0.0577 H       
  37 H37           -5.3468    -1.8526     1.6886 H       
  38 H38           -3.2602    -4.8545    -1.6261 H       
  39 H39           -2.7057    -2.4580    -1.6325 H       
@<TRIPOS>BOND
   1    1    2 ar
   2    1   10 ar
   3    2    3 ar
   4    2   14 1
   5    3    4 ar
   6    3   12 1
   7    4    5 ar
   8    4   13 1
   9    5    6 ar
  10    5   10 ar
  11    6    7 ar
  12    6   28 1
  13    7    8 ar
  14    7   29 1
  15    8    9 ar
  16    8   30 1
  17    9   10 ar
  18    9   31 1
  19   11   12 2
  20   11   13 1
  21   11   32 1
  22   13   33 1
  23   14   16 1
  24   14   34 1
  25   15   16 1
  26   15   19 1
  27   16   17 2
  28   17   18 1
  29   17   20 1
  30   18   19 2
  31   18   35 1
  32   19   36 1
  33   20   21 ar
  34   20   25 ar
  35   21   22 ar
  36   21   37 1
  37   22   23 ar
  38   22   27 1
  39   23   24 ar
  40   23   26 1
  41   24   25 ar
  42   24   38 1
  43   25   39 1

#	End of record

