#	Name: ASD04880899
#	Creating user name:	WinNT
#	Creation time:	15. 06. 2019 20:53

#	Modifying user name:	WinNT
#	Modification time:	15. 06. 2019 20:53

#	Program:	/corina/corina34_cracker 3.40 0067  02.08.2006

@<TRIPOS>MOLECULE
ASD04880899
  77   82    0    0    0
SMALL
NO_CHARGES


@<TRIPOS>ATOM
   1 C1            -0.3964     2.3554     3.0783 C.ar    
   2 C2            -0.6363     1.2818     2.2408 C.ar    
   3 C3             0.3466     0.8465     1.3705 C.ar    
   4 C4             1.5713     1.4833     1.3355 C.ar    
   5 C5             1.8157     2.5624     2.1758 C.ar    
   6 C6             0.8264     2.9970     3.0485 C.ar    
   7 N7             3.0536     3.2086     2.1433 N.3     
   8 C8             3.2896     3.8289     0.8321 C.3     
   9 C9             4.6162     4.5916     0.8630 C.3     
  10 N10            5.7033     3.6646     1.2072 N.3     
  11 C11            5.4673     3.0443     2.5184 C.3     
  12 C12            4.1407     2.2816     2.4876 C.3     
  13 C13            6.9374     4.3088     1.1749 C.ar    
  14 C14            7.4465     4.7811    -0.0381 C.ar    
  15 C15            8.6713     5.4208    -0.0698 C.ar    
  16 C16            9.3970     5.5934     1.1122 C.ar    
  17 C17            8.8820     5.1186     2.3217 C.ar    
  18 C18            7.6588     4.4864     2.3499 C.ar    
  19 C19            1.0869     4.1671     3.9617 C.3     
  20 N20            6.7163     4.6058    -1.2207 N.am    
  21 C21           10.7049     6.2752     1.0831 C.2     
  22 C22            6.0514     5.3351    -3.4498 C.2     
  23 C23            6.8834     5.4609    -2.2490 C.2     
  24 O24            7.7249     6.3376    -2.1808 O.2     
  25 C25            6.1199     6.1271    -4.5601 C.2     
  26 C26            5.1483     5.6524    -5.4550 C.2     
  27 C27            4.5371     4.6047    -4.8594 C.2     
  28 O28            5.0879     4.4130    -3.6536 O.3     
  29 N29           11.4039     6.4411     2.2234 N.am    
  30 O30           11.1523     6.6875     0.0303 O.2     
  31 C31           12.7027     7.1181     2.1946 C.3     
  32 C32           13.2804     7.1739     3.6102 C.3     
  33 C33           14.6368     7.8811     3.5801 C.3     
  34 C34           14.4587     9.3734     3.2185 C.3     
  35 C35           15.2751     7.8936     5.0027 C.3     
  36 C36           15.0060    10.1470     4.4568 C.3     
  37 C37           16.1606     9.1862     4.9120 C.3     
  38 C38           13.9540     9.8846     5.5774 C.3     
  39 C39           14.1322     8.3922     5.9389 C.3     
  40 H40           15.2844    11.1866     4.2842 H       
  41 H41           15.7749     6.9745     5.3087 H       
  42 H42           -1.1677     2.6956     3.7535 H       
  43 H43           -1.5932     0.7817     2.2664 H       
  44 H44            0.1561     0.0074     0.7179 H       
  45 H45            2.3386     1.1427     0.6560 H       
  46 H46            3.3330     3.0546     0.0661 H       
  47 H47            2.4779     4.5201     0.6054 H       
  48 H48            4.8074     5.0283    -0.1172 H       
  49 H49            4.5631     5.3834     1.6102 H       
  50 H50            6.2790     2.3531     2.7451 H       
  51 H51            5.4239     3.8186     3.2844 H       
  52 H52            3.9495     1.8449     3.4677 H       
  53 H53            4.1938     1.4898     1.7403 H       
  54 H54            9.0669     5.7863    -1.0060 H       
  55 H55            9.4421     5.2511     3.2356 H       
  56 H56            7.2609     4.1243     3.2863 H       
  57 H57            1.4211     3.8025     4.9331 H       
  58 H58            1.8586     4.8025     3.5270 H       
  59 H59            0.1696     4.7426     4.0856 H       
  60 H60            6.0904     3.8689    -1.2995 H       
  61 H61            6.7915     6.9579    -4.7189 H       
  62 H62            4.9299     6.0500    -6.4351 H       
  63 H63            3.7390     4.0160    -5.2871 H       
  64 H64           11.0470     6.1121     3.0633 H       
  65 H65           13.3845     6.5688     1.5453 H       
  66 H66           12.5758     8.1315     1.8137 H       
  67 H67           12.5986     7.7233     4.2594 H       
  68 H68           13.4073     6.1606     3.9910 H       
  69 H69           15.3025     7.3943     2.8673 H       
  70 H70           15.0384     9.6208     2.3292 H       
  71 H71           13.4047     9.6033     3.0623 H       
  72 H72           16.5702     9.4700     5.8814 H       
  73 H73           16.9396     9.0958     4.1549 H       
  74 H74           14.1579    10.5126     6.4446 H       
  75 H75           12.9467    10.0673     5.2032 H       
  76 H76           13.2125     7.8412     5.7425 H       
  77 H77           14.4237     8.2866     6.9839 H       
@<TRIPOS>BOND
   1    1    2 ar
   2    1    6 ar
   3    1   42 1
   4    2    3 ar
   5    2   43 1
   6    3    4 ar
   7    3   44 1
   8    4    5 ar
   9    4   45 1
  10    5    6 ar
  11    5    7 1
  12    6   19 1
  13    7    8 1
  14    7   12 1
  15    8    9 1
  16    8   46 1
  17    8   47 1
  18    9   10 1
  19    9   48 1
  20    9   49 1
  21   10   11 1
  22   10   13 1
  23   11   12 1
  24   11   50 1
  25   11   51 1
  26   12   52 1
  27   12   53 1
  28   13   14 ar
  29   13   18 ar
  30   14   15 ar
  31   14   20 1
  32   15   16 ar
  33   15   54 1
  34   16   17 ar
  35   16   21 1
  36   17   18 ar
  37   17   55 1
  38   18   56 1
  39   19   57 1
  40   19   58 1
  41   19   59 1
  42   20   23 am
  43   20   60 1
  44   21   29 am
  45   21   30 2
  46   22   23 1
  47   22   28 1
  48   22   25 2
  49   23   24 2
  50   25   26 1
  51   25   61 1
  52   26   27 2
  53   26   62 1
  54   27   28 1
  55   27   63 1
  56   29   31 1
  57   29   64 1
  58   31   32 1
  59   31   65 1
  60   31   66 1
  61   32   33 1
  62   32   67 1
  63   32   68 1
  64   33   34 1
  65   33   35 1
  66   33   69 1
  67   34   36 1
  68   34   70 1
  69   34   71 1
  70   35   39 1
  71   35   41 1
  72   35   37 1
  73   36   37 1
  74   36   38 1
  75   36   40 1
  76   37   72 1
  77   37   73 1
  78   38   39 1
  79   38   74 1
  80   38   75 1
  81   39   76 1
  82   39   77 1

#	End of record

