#	Name: ASD01911950
#	Creating user name:	WinNT
#	Creation time:	15. 06. 2019 19:58

#	Modifying user name:	WinNT
#	Modification time:	15. 06. 2019 19:58

#	Program:	/corina/corina34_cracker 3.40 0067  02.08.2006

@<TRIPOS>MOLECULE
ASD01911950
  38   39    0    0    0
SMALL
NO_CHARGES


@<TRIPOS>ATOM
   1 C1            -0.0167     1.3828     0.0096 C.ar    
   2 C2             0.0021    -0.0041     0.0020 C.ar    
   3 C3            -1.1862    -0.7201     0.0100 C.ar    
   4 C4            -2.3933    -0.0571     0.0251 C.ar    
   5 C5            -2.4194     1.3423     0.0328 C.ar    
   6 C6            -1.2172     2.0583     0.0305 C.ar    
   7 C7             1.2790     2.1523     0.0014 C.3     
   8 C8            -3.7042     2.0566     0.0485 C.2     
   9 C9            -4.9969     1.2821     0.0563 C.3     
  10 O10           -3.7237     3.2692     0.0552 O.2     
  11 C11           -6.1579     2.2428     0.0721 C.2     
  12 C12           -7.5704     1.7175     0.0823 C.3     
  13 O13           -5.9564     3.4334     0.0767 O.2     
  14 C14           -8.4984     2.7618     0.7062 C.3     
  15 C15           -8.0178     1.4296    -1.3522 C.3     
  16 C16           -9.4519     0.8964    -1.3418 C.3     
  17 C17          -10.3798     1.9407    -0.7180 C.3     
  18 C18           -9.9324     2.2286     0.7165 C.3     
  19 F19            1.1828    -0.6605    -0.0137 F       
  20 H20           -1.1647    -1.7999     0.0040 H       
  21 H21           -3.3176    -0.6157     0.0305 H       
  22 H22           -1.2305     3.1382     0.0368 H       
  23 H23            1.5815     2.3433    -1.0282 H       
  24 H24            1.1418     3.1003     0.5217 H       
  25 H25            2.0506     1.5699     0.5048 H       
  26 H26           -5.0527     0.6594    -0.8366 H       
  27 H27           -5.0363     0.6498     0.9433 H       
  28 H28           -7.6122     0.7987     0.6673 H       
  29 H29           -8.1796     2.9669     1.7281 H       
  30 H30           -8.4566     3.6806     0.1213 H       
  31 H31           -7.9761     2.3485    -1.9371 H       
  32 H32           -7.3567     0.6857    -1.7966 H       
  33 H33           -9.7706     0.6913    -2.3638 H       
  34 H34           -9.4936    -0.0224    -0.7569 H       
  35 H35          -10.3381     2.8595    -1.3029 H       
  36 H36          -11.4015     1.5608    -0.7106 H       
  37 H37           -9.9741     1.3098     1.3014 H       
  38 H38          -10.5935     2.9726     1.1610 H       
@<TRIPOS>BOND
   1    1    2 ar
   2    1    7 1
   3    1    6 ar
   4    2    3 ar
   5    2   19 1
   6    3    4 ar
   7    3   20 1
   8    4    5 ar
   9    4   21 1
  10    5    6 ar
  11    5    8 1
  12    6   22 1
  13    7   23 1
  14    7   24 1
  15    7   25 1
  16    8    9 1
  17    8   10 2
  18    9   11 1
  19    9   26 1
  20    9   27 1
  21   11   12 1
  22   11   13 2
  23   12   14 1
  24   12   15 1
  25   12   28 1
  26   14   18 1
  27   14   29 1
  28   14   30 1
  29   15   16 1
  30   15   31 1
  31   15   32 1
  32   16   17 1
  33   16   33 1
  34   16   34 1
  35   17   18 1
  36   17   35 1
  37   17   36 1
  38   18   37 1
  39   18   38 1

#	End of record

