#	Name: ASD01000117
#	Creating user name:	WinNT
#	Creation time:	15. 06. 2019 18:54

#	Modifying user name:	WinNT
#	Modification time:	15. 06. 2019 18:54

#	Program:	/corina/corina34_cracker 3.40 0067  02.08.2006

@<TRIPOS>MOLECULE
ASD01000117
  54   57    0    0    0
SMALL
NO_CHARGES


@<TRIPOS>ATOM
   1 C1             8.1279     2.8061     4.3914 C.ar    
   2 C2             8.0381     1.5097     4.8695 C.ar    
   3 C3             7.2835     0.5693     4.1884 C.ar    
   4 C4             6.6189     0.9230     3.0305 C.ar    
   5 C5             6.7077     2.2224     2.5495 C.ar    
   6 C6             7.4648     3.1639     3.2339 C.ar    
   7 F7             8.6878     1.1616     6.0017 F       
   8 N8             6.0346     2.5830     1.3757 N.am    
   9 C9             5.5316     3.8263     1.2421 C.2     
  10 C10            4.8908     4.2444    -0.0562 C.3     
  11 O11            5.5947     4.6086     2.1669 O.2     
  12 O12            6.3005     6.6955     1.1408 O.2     
  13 C13            5.4868     6.6581     0.2427 C.2     
  14 C14            4.3498     5.6693     0.0778 C.3     
  15 N15            5.4016     7.4907    -0.8136 N.am    
  16 C16            4.3829     7.1653    -1.6176 C.2     
  17 N17            3.6984     6.0960    -1.1727 N.am    
  18 C18            2.5324     5.4770    -1.8077 C.3     
  19 C19            2.9994     4.4866    -2.8763 C.3     
  20 C20            1.7999     3.8498    -3.5296 C.2     
  21 S21            1.0146     2.3725    -2.9867 S.3     
  22 C22           -0.1585     2.4807    -4.2927 C.2     
  23 C23            0.0900     3.5651    -5.0285 C.2     
  24 C24            1.1677     4.3233    -4.6045 C.2     
  25 C25            1.6000     5.5831    -5.3095 C.3     
  26 S26            3.9915     8.0171    -3.0501 S.2     
  27 C27            6.2729     8.5659    -1.0417 C.ar    
  28 C28            6.9958     8.6357    -2.2247 C.ar    
  29 C29            6.4092     9.5645    -0.0871 C.ar    
  30 C30            7.2678    10.6225    -0.3134 C.ar    
  31 C31            7.9923    10.6874    -1.4917 C.ar    
  32 C32            7.8534     9.6951    -2.4476 C.ar    
  33 F33            8.8317    11.7230    -1.7114 F       
  34 H34            8.7134     3.5392     4.9265 H       
  35 H35            7.2149    -0.4414     4.5627 H       
  36 H36            6.0307     0.1892     2.4994 H       
  37 H37            7.5349     4.1752     2.8615 H       
  38 H38            5.9304     1.9381     0.6587 H       
  39 H39            5.6321     4.2108    -0.8546 H       
  40 H40            4.0715     3.5654    -0.2922 H       
  41 H41            3.6572     5.7380     0.9166 H       
  42 H42            1.9460     4.9498    -1.0552 H       
  43 H43            1.9185     6.2491    -2.2714 H       
  44 H44            3.5858     5.0138    -3.6289 H       
  45 H45            3.6133     3.7144    -2.4126 H       
  46 H46           -0.9576     1.7766    -4.4716 H       
  47 H47           -0.5067     3.8334    -5.8878 H       
  48 H48            1.0793     6.4380    -4.8779 H       
  49 H49            2.6755     5.7151    -5.1910 H       
  50 H50            1.3579     5.5076    -6.3696 H       
  51 H51            6.8880     7.8618    -2.9703 H       
  52 H52            5.8440     9.5144     0.8318 H       
  53 H53            7.3738    11.3997     0.4289 H       
  54 H54            8.4193     9.7474    -3.3659 H       
@<TRIPOS>BOND
   1    1    2 ar
   2    1    6 ar
   3    1   34 1
   4    2    3 ar
   5    2    7 1
   6    3    4 ar
   7    3   35 1
   8    4    5 ar
   9    4   36 1
  10    5    6 ar
  11    5    8 1
  12    6   37 1
  13    8    9 am
  14    8   38 1
  15    9   10 1
  16    9   11 2
  17   10   14 1
  18   10   39 1
  19   10   40 1
  20   12   13 2
  21   13   14 1
  22   13   15 am
  23   14   17 1
  24   14   41 1
  25   15   16 am
  26   15   27 1
  27   16   17 am
  28   16   26 2
  29   17   18 1
  30   18   19 1
  31   18   42 1
  32   18   43 1
  33   19   20 1
  34   19   44 1
  35   19   45 1
  36   20   21 1
  37   20   24 2
  38   21   22 1
  39   22   23 2
  40   22   46 1
  41   23   24 1
  42   23   47 1
  43   24   25 1
  44   25   48 1
  45   25   49 1
  46   25   50 1
  47   27   28 ar
  48   27   29 ar
  49   28   32 ar
  50   28   51 1
  51   29   30 ar
  52   29   52 1
  53   30   31 ar
  54   30   53 1
  55   31   32 ar
  56   31   33 1
  57   32   54 1

#	End of record

