#	Name: ASD01911262
#	Creating user name:	WinNT
#	Creation time:	15. 06. 2019 19:57

#	Modifying user name:	WinNT
#	Modification time:	15. 06. 2019 19:57

#	Program:	/corina/corina34_cracker 3.40 0067  02.08.2006

@<TRIPOS>MOLECULE
ASD01911262
  41   44    0    0    0
SMALL
NO_CHARGES


@<TRIPOS>ATOM
   1 C1            -1.1077     0.5114    -1.0170 C.3     
   2 C2            -0.3277    -0.5875    -0.2884 C.3     
   3 N3             0.8397    -0.9566    -1.1005 N.am    
   4 C4             1.7617     0.1019    -1.5344 C.3     
   5 C5             0.9583     1.1930    -2.2491 C.3     
   6 C6            -0.1666     1.6767    -1.3311 C.3     
   7 C7             1.0610    -2.2419    -1.4406 C.2     
   8 O8             1.9622    -2.5215    -2.2091 O.2     
   9 C9             0.2160    -3.3029    -0.8848 C.2     
  10 C10            2.7835    -0.4746    -2.4803 C.2     
  11 N11            4.0591    -0.6456    -2.2375 N.2     
  12 C12            4.5739    -1.1873    -3.3644 C.2     
  13 N13            3.5903    -1.3122    -4.2169 N.2     
  14 O14            2.5571    -0.9130    -3.7226 O.3     
  15 C15            5.9903    -1.5683    -3.5914 C.ar    
  16 C16            6.3790    -2.1194    -4.8104 C.ar    
  17 C17            7.6974    -2.4725    -5.0177 C.ar    
  18 C18            8.6330    -2.2803    -4.0180 C.ar    
  19 C19            8.2531    -1.7331    -2.8031 C.ar    
  20 C20            6.9366    -1.3706    -2.5882 C.ar    
  21 F21            9.1714    -1.5484    -1.8295 F       
  22 C22           -0.0792    -4.4861    -1.5016 C.2     
  23 C23           -0.8959    -5.3003    -0.7533 C.2     
  24 C24           -1.2581    -4.8033     0.4351 C.2     
  25 S25           -0.5739    -3.2605     0.6855 S.3     
  26 H26           -1.5159     0.1129    -1.9458 H       
  27 H27           -1.9215     0.8619    -0.3822 H       
  28 H28            0.0042    -0.2179     0.6819 H       
  29 H29           -0.9672    -1.4593    -0.1503 H       
  30 H30            2.2640     0.5276    -0.6658 H       
  31 H31            1.6149     2.0286    -2.4913 H       
  32 H32            0.5306     0.7881    -3.1663 H       
  33 H33           -0.7247     2.4704    -1.8277 H       
  34 H34            0.2604     2.0587    -0.4038 H       
  35 H35            5.6496    -2.2705    -5.5924 H       
  36 H36            7.9986    -2.9000    -5.9626 H       
  37 H37            9.6634    -2.5581    -4.1846 H       
  38 H38            6.6403    -0.9441    -1.6413 H       
  39 H39            0.2919    -4.7546    -2.4796 H       
  40 H40           -1.2216    -6.2701    -1.0996 H       
  41 H41           -1.8952    -5.3126     1.1431 H       
@<TRIPOS>BOND
   1    1    2 1
   2    1    6 1
   3    1   26 1
   4    1   27 1
   5    2    3 1
   6    2   28 1
   7    2   29 1
   8    3    4 1
   9    3    7 am
  10    4    5 1
  11    4   10 1
  12    4   30 1
  13    5    6 1
  14    5   31 1
  15    5   32 1
  16    6   33 1
  17    6   34 1
  18    7    8 2
  19    7    9 1
  20    9   22 2
  21    9   25 1
  22   10   11 2
  23   10   14 1
  24   11   12 1
  25   12   13 2
  26   12   15 1
  27   13   14 1
  28   15   16 ar
  29   15   20 ar
  30   16   17 ar
  31   16   35 1
  32   17   18 ar
  33   17   36 1
  34   18   19 ar
  35   18   37 1
  36   19   20 ar
  37   19   21 1
  38   20   38 1
  39   22   23 1
  40   22   39 1
  41   23   24 2
  42   23   40 1
  43   24   25 1
  44   24   41 1

#	End of record

