#	Name: ASD01530047
#	Creating user name:	WinNT
#	Creation time:	15. 06. 2019 19:22

#	Modifying user name:	WinNT
#	Modification time:	15. 06. 2019 19:22

#	Program:	/corina/corina34_cracker 3.40 0067  02.08.2006

@<TRIPOS>MOLECULE
ASD01530047
  46   47    0    0    0
SMALL
NO_CHARGES


@<TRIPOS>ATOM
   1 C1            -0.4339     1.8378    -0.4943 C.ar    
   2 C2            -0.4049     0.4697    -0.6907 C.ar    
   3 C3             0.7396     2.5674    -0.5342 C.ar    
   4 C4             1.9426     1.9294    -0.7711 C.ar    
   5 C5             1.9723     0.5603    -0.9678 C.ar    
   6 C6             0.7975    -0.1695    -0.9272 C.ar    
   7 Cl7            3.4828    -0.2417    -1.2659 Cl      
   8 C8            -1.7460     2.5350    -0.2426 C.3     
   9 C9            -2.0244     2.5706     1.2614 C.3     
  10 N10           -3.3034     3.2502     1.5067 N.3     
  11 C11           -4.4251     2.4736     0.9620 C.3     
  12 C12           -3.4928     3.5148     2.9392 C.3     
  13 C13           -2.6076     4.6888     3.3623 C.3     
  14 C14           -2.8191     4.9751     4.8267 C.ar    
  15 C15           -2.0358     4.3432     5.7744 C.ar    
  16 C16           -2.2293     4.6053     7.1176 C.ar    
  17 C17           -3.2071     5.5004     7.5136 C.ar    
  18 C18           -3.9907     6.1326     6.5646 C.ar    
  19 C19           -3.7925     5.8739     5.2215 C.ar    
  20 Cl20          -3.4511     5.8298     9.2005 Cl      
  21 C21           -5.6640     3.3662     0.8652 C.3     
  22 O22           -5.3932     4.4638    -0.0089 O.3     
  23 C23           -6.8369     2.5528     0.3143 C.3     
  24 H24           -1.3220    -0.0998    -0.6590 H       
  25 H25            0.7164     3.6362    -0.3806 H       
  26 H26            2.8593     2.4996    -0.8029 H       
  27 H27            0.8201    -1.2383    -1.0804 H       
  28 H28           -1.6958     3.5537    -0.6271 H       
  29 H29           -2.5470     1.9951    -0.7477 H       
  30 H30           -2.0746     1.5519     1.6459 H       
  31 H31           -1.2234     3.1105     1.7664 H       
  32 H32           -4.1642     2.1054    -0.0302 H       
  33 H33           -4.6357     1.6298     1.6190 H       
  34 H34           -4.5377     3.7610     3.1282 H       
  35 H35           -3.2190     2.6286     3.5117 H       
  36 H36           -1.5616     4.4362     3.1889 H       
  37 H37           -2.8701     5.5708     2.7781 H       
  38 H38           -1.2728     3.6442     5.4652 H       
  39 H39           -1.6176     4.1113     7.8579 H       
  40 H40           -4.7542     6.8315     6.8731 H       
  41 H41           -4.4041     6.3673     4.4806 H       
  42 H42           -5.9176     3.7444     1.8556 H       
  43 H43           -5.1599     4.2009    -0.9097 H       
  44 H44           -7.0434     1.7156     0.9810 H       
  45 H45           -7.7195     3.1887     0.2453 H       
  46 H46           -6.5833     2.1746    -0.6761 H       
@<TRIPOS>BOND
   1    1    2 ar
   2    1    3 ar
   3    1    8 1
   4    2    6 ar
   5    2   24 1
   6    3    4 ar
   7    3   25 1
   8    4    5 ar
   9    4   26 1
  10    5    6 ar
  11    5    7 1
  12    6   27 1
  13    8    9 1
  14    8   28 1
  15    8   29 1
  16    9   10 1
  17    9   30 1
  18    9   31 1
  19   10   11 1
  20   10   12 1
  21   11   21 1
  22   11   32 1
  23   11   33 1
  24   12   13 1
  25   12   34 1
  26   12   35 1
  27   13   14 1
  28   13   36 1
  29   13   37 1
  30   14   15 ar
  31   14   19 ar
  32   15   16 ar
  33   15   38 1
  34   16   17 ar
  35   16   39 1
  36   17   18 ar
  37   17   20 1
  38   18   19 ar
  39   18   40 1
  40   19   41 1
  41   21   22 1
  42   21   23 1
  43   21   42 1
  44   22   43 1
  45   23   44 1
  46   23   45 1
  47   23   46 1

#	End of record

