#	Name: ASD03090210
#	Creating user name:	WinNT
#	Creation time:	15. 06. 2019 20:28

#	Modifying user name:	WinNT
#	Modification time:	15. 06. 2019 20:28

#	Program:	/corina/corina34_cracker 3.40 0067  02.08.2006

@<TRIPOS>MOLECULE
ASD03090210
  51   53    0    0    0
SMALL
NO_CHARGES


@<TRIPOS>ATOM
   1 N1             0.4500     1.5160     1.4718 N.ar    
   2 C2             0.4118     0.1968     1.4377 C.ar    
   3 C3             1.5397    -0.5370     1.1255 C.ar    
   4 C4             2.7315     0.1386     0.8439 C.ar    
   5 C5             2.7254     1.5370     0.8920 C.ar    
   6 C6             1.5535     2.1908     1.2127 C.ar    
   7 C7             3.9654    -0.6051     0.5049 C.2     
   8 N8             5.7446    -3.4530    -0.5337 N.pl3   
   9 C9             4.8189    -4.4419    -0.8770 C.ar    
  10 C10            3.6012    -4.0887    -1.4444 C.ar    
  11 C11            2.6885    -5.0687    -1.7825 C.ar    
  12 C12            2.9856    -6.4000    -1.5563 C.ar    
  13 C13            4.1971    -6.7552    -0.9914 C.ar    
  14 C14            5.1167    -5.7811    -0.6567 C.ar    
  15 N15            4.0299    -1.8610     0.1108 N.2     
  16 C16            5.3013    -2.1996    -0.1071 C.2     
  17 N17            6.0694    -1.1642     0.1446 N.2     
  18 N18            5.2243    -0.1143     0.5391 N.pl3   
  19 C19            5.6279     1.2414     0.9203 C.3     
  20 C20            5.7319     2.1138    -0.3323 C.3     
  21 C21            6.1534     3.5297     0.0658 C.3     
  22 C22            6.2559     4.3889    -1.1680 C.2     
  23 Cl23          -1.0754    -0.6265     1.7904 Cl      
  24 N24            6.6147     5.6835    -1.0597 N.am    
  25 O25            6.0156     3.9154    -2.2584 O.2     
  26 C26            6.7144     6.5188    -2.2591 C.3     
  27 C27            6.9051     6.2554     0.2574 C.3     
  28 C28            4.5164    -8.2075    -0.7468 C.3     
  29 F29            3.4428    -8.9987    -1.1694 F       
  30 F30            5.6654    -8.5595    -1.4631 F       
  31 F31            4.7375    -8.4127     0.6193 F       
  32 H32            1.5020    -1.6160     1.0997 H       
  33 H33            3.6249     2.0963     0.6814 H       
  34 H34            1.5394     3.2700     1.2518 H       
  35 H35            6.6951    -3.6374    -0.5917 H       
  36 H36            3.3683    -3.0489    -1.6207 H       
  37 H37            1.7416    -4.7947    -2.2237 H       
  38 H38            2.2698    -7.1642    -1.8210 H       
  39 H39            6.0625    -6.0591    -0.2157 H       
  40 H40            4.8857     1.6646     1.5972 H       
  41 H41            6.5962     1.2055     1.4195 H       
  42 H42            6.4741     1.6905    -1.0092 H       
  43 H43            4.7636     2.1497    -0.8315 H       
  44 H44            5.4112     3.9529     0.7427 H       
  45 H45            7.1217     3.4937     0.5650 H       
  46 H46            6.4635     5.9244    -3.1377 H       
  47 H47            6.0216     7.3563    -2.1772 H       
  48 H48            7.7321     6.8971    -2.3549 H       
  49 H49            7.9646     6.1322     0.4815 H       
  50 H50            6.6550     7.3164     0.2560 H       
  51 H51            6.3115     5.7433     1.0148 H       
@<TRIPOS>BOND
   1    1    2 ar
   2    1    6 ar
   3    2    3 ar
   4    2   23 1
   5    3    4 ar
   6    3   32 1
   7    4    5 ar
   8    4    7 1
   9    5    6 ar
  10    5   33 1
  11    6   34 1
  12    7   15 2
  13    7   18 1
  14    8    9 1
  15    8   16 1
  16    8   35 1
  17    9   10 ar
  18    9   14 ar
  19   10   11 ar
  20   10   36 1
  21   11   12 ar
  22   11   37 1
  23   12   13 ar
  24   12   38 1
  25   13   14 ar
  26   13   28 1
  27   14   39 1
  28   15   16 1
  29   16   17 2
  30   17   18 1
  31   18   19 1
  32   19   20 1
  33   19   40 1
  34   19   41 1
  35   20   21 1
  36   20   42 1
  37   20   43 1
  38   21   22 1
  39   21   44 1
  40   21   45 1
  41   22   24 am
  42   22   25 2
  43   24   26 1
  44   24   27 1
  45   26   46 1
  46   26   47 1
  47   26   48 1
  48   27   49 1
  49   27   50 1
  50   27   51 1
  51   28   29 1
  52   28   30 1
  53   28   31 1

#	End of record

