#	Name: ASD03090259
#	Creating user name:	WinNT
#	Creation time:	15. 06. 2019 20:28

#	Modifying user name:	WinNT
#	Modification time:	15. 06. 2019 20:28

#	Program:	/corina/corina34_cracker 3.40 0067  02.08.2006

@<TRIPOS>MOLECULE
ASD03090259
  47   49    0    0    0
SMALL
NO_CHARGES


@<TRIPOS>ATOM
   1 N1            -0.0367     1.2385    -0.6638 N.ar    
   2 C2             0.1795     0.1663    -1.3991 C.ar    
   3 C3             1.3939    -0.5035    -1.3385 C.ar    
   4 C4             2.3935    -0.0182    -0.4779 C.ar    
   5 C5             2.1127     1.1232     0.2798 C.ar    
   6 C6             0.8767     1.7236     0.1552 C.ar    
   7 C7             3.7039    -0.6953    -0.3761 C.2     
   8 N8             5.7790    -3.5009     0.0482 N.pl3   
   9 C9             7.1656    -3.6249     0.1840 C.ar    
  10 C10            7.9008    -2.6040     0.7720 C.ar    
  11 C11            9.2700    -2.7288     0.9055 C.ar    
  12 C12            9.9094    -3.8707     0.4536 C.ar    
  13 C13            9.1783    -4.8899    -0.1335 C.ar    
  14 C14            7.8086    -4.7719    -0.2639 C.ar    
  15 N15            3.8977    -1.9847    -0.1805 N.2     
  16 C16            5.2061    -2.2421    -0.1424 C.2     
  17 N17            5.8685    -1.1211    -0.3130 N.2     
  18 N18            4.9153    -0.1024    -0.4729 N.pl3   
  19 C19            5.1807     1.3217    -0.6914 C.3     
  20 F20           11.2486    -3.9906     0.5852 F       
  21 C21            5.1723     1.6132    -2.1699 C.2     
  22 N22            5.3951     2.8671    -2.6109 N.am    
  23 O23            4.9651     0.7193    -2.9630 O.2     
  24 C24            5.3870     3.1505    -4.0482 C.3     
  25 N25            1.6178    -1.6374    -2.1170 N.pl3   
  26 C26            0.5667    -2.1324    -3.0094 C.3     
  27 C27            9.8772    -6.1313    -0.6248 C.3     
  28 F28            8.9369    -7.0094    -1.1743 F       
  29 F29           10.8160    -5.7823    -1.6016 F       
  30 F30           10.5277    -6.7548     0.4455 F       
  31 H31           -0.5974    -0.1958    -2.0562 H       
  32 H32            2.8529     1.5287     0.9537 H       
  33 H33            0.6536     2.6056     0.7372 H       
  34 H34            5.2155    -4.2895     0.0864 H       
  35 H35            7.4025    -1.7130     1.1243 H       
  36 H36            9.8422    -1.9349     1.3624 H       
  37 H37            7.2389    -5.5670    -0.7218 H       
  38 H38            4.4094     1.9146    -0.1998 H       
  39 H39            6.1555     1.5775    -0.2762 H       
  40 H40            5.5609     3.5820    -1.9765 H       
  41 H41            6.1583     2.5575    -4.5398 H       
  42 H42            4.4122     2.8946    -4.4634 H       
  43 H43            5.5844     4.2100    -4.2108 H       
  44 H44            2.4696    -2.0989    -2.0681 H       
  45 H45           -0.3175    -2.3852    -2.4243 H       
  46 H46            0.3132    -1.3602    -3.7357 H       
  47 H47            0.9224    -3.0203    -3.5323 H       
@<TRIPOS>BOND
   1    1    2 ar
   2    1    6 ar
   3    2    3 ar
   4    2   31 1
   5    3    4 ar
   6    3   25 1
   7    4    5 ar
   8    4    7 1
   9    5    6 ar
  10    5   32 1
  11    6   33 1
  12    7   15 2
  13    7   18 1
  14    8    9 1
  15    8   16 1
  16    8   34 1
  17    9   10 ar
  18    9   14 ar
  19   10   11 ar
  20   10   35 1
  21   11   12 ar
  22   11   36 1
  23   12   13 ar
  24   12   20 1
  25   13   14 ar
  26   13   27 1
  27   14   37 1
  28   15   16 1
  29   16   17 2
  30   17   18 1
  31   18   19 1
  32   19   21 1
  33   19   38 1
  34   19   39 1
  35   21   22 am
  36   21   23 2
  37   22   24 1
  38   22   40 1
  39   24   41 1
  40   24   42 1
  41   24   43 1
  42   25   26 1
  43   25   44 1
  44   26   45 1
  45   26   46 1
  46   26   47 1
  47   27   28 1
  48   27   29 1
  49   27   30 1

#	End of record

