#	Name: ASD01208592
#	Creating user name:	WinNT
#	Creation time:	15. 06. 2019 19:10

#	Modifying user name:	WinNT
#	Modification time:	15. 06. 2019 19:10

#	Program:	/corina/corina34_cracker 3.40 0067  02.08.2006

@<TRIPOS>MOLECULE
ASD01208592
  68   69    0    0    0
SMALL
NO_CHARGES


@<TRIPOS>ATOM
   1 N1            -0.1305     2.5454    -0.1914 N.pl3   
   2 C2            -0.4165     1.2548     0.1957 C.2     
   3 C3             0.7603     0.6653     0.6157 C.2     
   4 C4             1.7729     1.6125     0.4810 C.2     
   5 C5             1.2042     2.7649    -0.0180 C.2     
   6 C6            -1.7352     0.6198     0.1675 C.2     
   7 O7            -1.8635    -0.5322     0.5365 O.2     
   8 O8            -2.8082     1.3122    -0.2679 O.3     
   9 C9             1.9194     4.0241    -0.3146 C.ar    
  10 C10            1.2222     5.1228    -0.8191 C.ar    
  11 C11            1.8961     6.3005    -1.0956 C.ar    
  12 C12            3.2628     6.3891    -0.8721 C.ar    
  13 C13            3.9598     5.2992    -0.3711 C.ar    
  14 C14            3.2923     4.1195    -0.0855 C.ar    
  15 O15            5.2983     5.3911    -0.1544 O.3     
  16 Si16           5.6940     5.9374     1.3305 Si      
  17 C17            4.6916     7.4587     1.7200 C.3     
  18 C18            3.2607     7.0496     2.0751 C.3     
  19 C19            5.3206     8.1943     2.9050 C.3     
  20 C20            5.3347     4.6166     2.5943 C.3     
  21 C21            5.9818     3.3014     2.1555 C.3     
  22 C22            5.9056     5.0387     3.9496 C.3     
  23 C23            7.5077     6.3610     1.3735 C.3     
  24 C24            8.3224     5.1666     0.8727 C.3     
  25 C25            7.7704     7.5706     0.4741 C.3     
  26 O26            1.2181     7.3709    -1.5869 O.3     
  27 C27           -0.1609     7.1746    -1.9062 C.3     
  28 C28           -0.5904     8.1956    -2.9617 C.3     
  29 C29           -1.0075     7.3581    -0.6450 C.3     
  30 O30           -0.5136     9.5117    -2.4103 O.3     
  31 C31           -0.8958    10.5459    -3.3194 C.3     
  32 H32           -0.7705     3.1888    -0.5339 H       
  33 H33            0.8742    -0.3443     0.9819 H       
  34 H34            2.8154     1.4699     0.7243 H       
  35 H35           -3.6342     0.8098    -0.2499 H       
  36 H36            0.1586     5.0544    -0.9940 H       
  37 H37            3.7854     7.3089    -1.0891 H       
  38 H38            3.8348     3.2732     0.3094 H       
  39 H39            4.6764     8.1162     0.8508 H       
  40 H40            3.2637     6.4947     3.0132 H       
  41 H41            2.6438     7.9417     2.1826 H       
  42 H42            2.8553     6.4208     1.2823 H       
  43 H43            6.3099     8.5560     2.6245 H       
  44 H44            4.6907     9.0389     3.1842 H       
  45 H45            5.4094     7.5122     3.7505 H       
  46 H46            4.2567     4.4801     2.6807 H       
  47 H47            7.0665     3.3948     2.2084 H       
  48 H48            5.6537     2.4975     2.8145 H       
  49 H49            5.6861     3.0750     1.1311 H       
  50 H50            6.9603     5.2897     3.8373 H       
  51 H51            5.3622     5.9089     4.3176 H       
  52 H52            5.8010     4.2181     4.6594 H       
  53 H53            7.8013     6.5980     2.3961 H       
  54 H54            9.3713     5.4513     0.7900 H       
  55 H55            8.2247     4.3397     1.5761 H       
  56 H56            7.9515     4.8580    -0.1046 H       
  57 H57            7.1900     8.4215     0.8308 H       
  58 H58            8.8315     7.8184     0.4992 H       
  59 H59            7.4767     7.3335    -0.5485 H       
  60 H60           -0.3037     6.1669    -2.2962 H       
  61 H61            0.0702     8.1246    -3.8258 H       
  62 H62           -1.6154     7.9901    -3.2700 H       
  63 H63           -0.8647     8.3659    -0.2550 H       
  64 H64           -2.0593     7.2084    -0.8885 H       
  65 H65           -0.7015     6.6308     0.1070 H       
  66 H66           -0.2416    10.5236    -4.1910 H       
  67 H67           -1.9272    10.3891    -3.6352 H       
  68 H68           -0.8102    11.5138    -2.8255 H       
@<TRIPOS>BOND
   1    1    2 1
   2    1    5 1
   3    1   32 1
   4    2    3 2
   5    2    6 1
   6    3    4 1
   7    3   33 1
   8    4    5 2
   9    4   34 1
  10    5    9 1
  11    6    7 2
  12    6    8 1
  13    8   35 1
  14    9   10 ar
  15    9   14 ar
  16   10   11 ar
  17   10   36 1
  18   11   12 ar
  19   11   26 1
  20   12   13 ar
  21   12   37 1
  22   13   14 ar
  23   13   15 1
  24   14   38 1
  25   15   16 1
  26   16   17 1
  27   16   20 1
  28   16   23 1
  29   17   18 1
  30   17   19 1
  31   17   39 1
  32   18   40 1
  33   18   41 1
  34   18   42 1
  35   19   43 1
  36   19   44 1
  37   19   45 1
  38   20   21 1
  39   20   22 1
  40   20   46 1
  41   21   47 1
  42   21   48 1
  43   21   49 1
  44   22   50 1
  45   22   51 1
  46   22   52 1
  47   23   24 1
  48   23   25 1
  49   23   53 1
  50   24   54 1
  51   24   55 1
  52   24   56 1
  53   25   57 1
  54   25   58 1
  55   25   59 1
  56   26   27 1
  57   27   28 1
  58   27   29 1
  59   27   60 1
  60   28   30 1
  61   28   61 1
  62   28   62 1
  63   29   63 1
  64   29   64 1
  65   29   65 1
  66   30   31 1
  67   31   66 1
  68   31   67 1
  69   31   68 1

#	End of record

