#	Name: ASD01121015
#	Creating user name:	WinNT
#	Creation time:	15. 06. 2019 18:59

#	Modifying user name:	WinNT
#	Modification time:	15. 06. 2019 18:59

#	Program:	/corina/corina34_cracker 3.40 0067  02.08.2006

@<TRIPOS>MOLECULE
ASD01121015
  45   46    0    0    0
SMALL
NO_CHARGES


@<TRIPOS>ATOM
   1 C1            -0.0383     1.3391    -0.0040 C.ar    
   2 C2             1.1042     2.1214    -0.0024 C.ar    
   3 C3             0.0866    -0.0456    -0.0157 C.ar    
   4 C4             1.0073     3.6252     0.0106 C.3     
   5 C5             2.3389     1.4917    -0.0127 C.ar    
   6 N6             1.2818    -0.6161    -0.0253 N.ar    
   7 C7             2.3933     0.1042    -0.0242 C.ar    
   8 N8             3.6307    -0.5373    -0.0350 N.am    
   9 C9             3.6944    -1.8803     0.0593 C.2     
  10 O10            2.6812    -2.5251     0.2486 O.2     
  11 N11            4.8813    -2.5084    -0.0561 N.am    
  12 S12            4.9595    -4.1585     0.0599 S.o2    
  13 C13            4.0726    -4.8203    -1.3112 C.2     
  14 O14            6.3222    -4.5103    -0.1362 O.2     
  15 O15            4.2245    -4.5143     1.2228 O.2     
  16 S16            2.3559    -5.2029    -1.3190 S.3     
  17 C17            4.5992    -5.1025    -2.5039 C.2     
  18 C18            2.4544    -5.7479    -2.9884 C.2     
  19 C19            3.7064    -5.6156    -3.4290 C.2     
  20 C20            1.2998    -6.2786    -3.7986 C.3     
  21 C21            4.1183    -5.9975    -4.8274 C.3     
  22 C22            1.2046    -7.7949    -3.6184 C.3     
  23 O23            0.1098    -8.2981    -4.3866 O.3     
  24 C24           -0.0680    -9.7126    -4.2879 C.3     
  25 H25            4.4460    -0.0172    -0.1105 H       
  26 H26            5.6896    -1.9939    -0.2070 H       
  27 N27           -1.0545    -0.8392    -0.0168 N.pl3   
  28 F28           -0.3389     4.0057     0.0198 F       
  29 F29            1.6405     4.1234     1.1543 F       
  30 F30            1.6304     4.1426    -1.1301 F       
  31 H31           -1.0153     1.7992     0.0083 H       
  32 H32            3.2487     2.0738    -0.0122 H       
  33 H33            5.6429    -4.9424    -2.7306 H       
  34 H34            0.3741    -5.8136    -3.4597 H       
  35 H35            1.4583    -6.0471    -4.8519 H       
  36 H36            4.0033    -5.1377    -5.4876 H       
  37 H37            5.1604    -6.3168    -4.8249 H       
  38 H38            3.4889    -6.8140    -5.1813 H       
  39 H39            2.1304    -8.2599    -3.9572 H       
  40 H40            1.0461    -8.0264    -2.5651 H       
  41 H41           -0.9182   -10.0154    -4.8992 H       
  42 H42            0.8313   -10.2174    -4.6406 H       
  43 H43           -0.2530    -9.9838    -3.2485 H       
  44 H44           -1.9323    -0.4265    -0.0095 H       
  45 H45           -0.9730    -1.8058    -0.0250 H       
@<TRIPOS>BOND
   1    1    2 ar
   2    1    3 ar
   3    1   31 1
   4    2    4 1
   5    2    5 ar
   6    3    6 ar
   7    3   27 1
   8    4   28 1
   9    4   29 1
  10    4   30 1
  11    5    7 ar
  12    5   32 1
  13    6    7 ar
  14    7    8 1
  15    8   25 1
  16    8    9 am
  17    9   10 2
  18    9   11 am
  19   11   26 1
  20   11   12 am
  21   12   13 1
  22   12   15 2
  23   12   14 2
  24   13   16 1
  25   13   17 2
  26   16   18 1
  27   17   19 1
  28   17   33 1
  29   18   19 2
  30   18   20 1
  31   19   21 1
  32   20   22 1
  33   20   34 1
  34   20   35 1
  35   21   36 1
  36   21   37 1
  37   21   38 1
  38   22   23 1
  39   22   39 1
  40   22   40 1
  41   23   24 1
  42   24   41 1
  43   24   42 1
  44   24   43 1
  45   27   44 1
  46   27   45 1

#	End of record

