#	Name: ASD01028509
#	Creating user name:	WinNT
#	Creation time:	15. 06. 2019 18:57

#	Modifying user name:	WinNT
#	Modification time:	15. 06. 2019 18:57

#	Program:	/corina/corina34_cracker 3.40 0067  02.08.2006

@<TRIPOS>MOLECULE
ASD01028509
  41   45    0    0    0
SMALL
NO_CHARGES


@<TRIPOS>ATOM
   1 C1            -0.0184     1.5028     0.0103 C.ar    
   2 C2             0.0021    -0.0041     0.0020 C.3     
   3 C3            -0.1284    -0.5004    -1.4149 C.2     
   4 N4             0.8879    -0.7477    -2.2698 N.pl3   
   5 C5             0.3047    -1.1800    -3.4374 C.2     
   6 N6            -1.0030    -1.1734    -3.2373 N.2     
   7 N7            -1.2474    -0.7753    -2.0376 N.2     
   8 N8             2.2776    -0.6483    -2.1764 N.2     
   9 C9             3.0389    -0.9659    -3.2001 C.2     
  10 C10            2.4704    -1.4123    -4.4119 C.2     
  11 C11            1.1209    -1.5201    -4.5328 C.2     
  12 C12            4.5134    -0.8531    -3.0798 C.ar    
  13 C13            5.0862    -0.4130    -1.8881 C.ar    
  14 C14            6.4584    -0.3105    -1.7817 C.ar    
  15 C15            7.2648    -0.6436    -2.8551 C.ar    
  16 C16            6.7016    -1.0810    -4.0404 C.ar    
  17 C17            5.3308    -1.1924    -4.1562 C.ar    
  18 C18            1.1490     2.2053     0.0029 C.ar    
  19 C19           -1.2387     2.1927     0.0198 C.ar    
  20 C20           -1.2404     3.6122     0.0276 C.ar    
  21 C21           -0.0180     4.3015     0.0257 C.ar    
  22 C22            1.1486     3.5986     0.0109 C.ar    
  23 C23           -2.4777     1.5259     0.0215 C.ar    
  24 C24           -3.6191     2.2685     0.0305 C.ar    
  25 N25           -3.5922     3.5943     0.0373 N.ar    
  26 C26           -2.4746     4.2823     0.0367 C.ar    
  27 H27            0.9424    -0.3570     0.4255 H       
  28 H28           -0.8291    -0.3820     0.5974 H       
  29 H29            3.1085    -1.6689    -5.2446 H       
  30 H30            0.6803    -1.8612    -5.4579 H       
  31 H31            4.4575    -0.1523    -1.0496 H       
  32 H32            6.9034     0.0308    -0.8587 H       
  33 H33            8.3381    -0.5615    -2.7676 H       
  34 H34            7.3358    -1.3394    -4.8754 H       
  35 H35            4.8921    -1.5341    -5.0821 H       
  36 H36            2.0892     1.6740    -0.0090 H       
  37 H37           -0.0024     5.3813     0.0312 H       
  38 H38            2.0888     4.1300     0.0094 H       
  39 H39           -2.5225     0.4469     0.0153 H       
  40 H40           -4.5736     1.7632     0.0318 H       
  41 H41           -2.5039     5.3619     0.0428 H       
@<TRIPOS>BOND
   1    1    2 1
   2    1   18 ar
   3    1   19 ar
   4    2    3 1
   5    2   27 1
   6    2   28 1
   7    3    4 1
   8    3    7 2
   9    4    5 1
  10    4    8 1
  11    5    6 2
  12    5   11 1
  13    6    7 1
  14    8    9 2
  15    9   10 1
  16    9   12 1
  17   10   11 2
  18   10   29 1
  19   11   30 1
  20   12   13 ar
  21   12   17 ar
  22   13   14 ar
  23   13   31 1
  24   14   15 ar
  25   14   32 1
  26   15   16 ar
  27   15   33 1
  28   16   17 ar
  29   16   34 1
  30   17   35 1
  31   18   22 ar
  32   18   36 1
  33   19   20 ar
  34   19   23 ar
  35   20   21 ar
  36   20   26 ar
  37   21   22 ar
  38   21   37 1
  39   22   38 1
  40   23   24 ar
  41   23   39 1
  42   24   25 ar
  43   24   40 1
  44   25   26 ar
  45   26   41 1

#	End of record

