#	Name: ASD03430444
#	Creating user name:	WinNT
#	Creation time:	15. 06. 2019 20:41

#	Modifying user name:	WinNT
#	Modification time:	15. 06. 2019 20:41

#	Program:	/corina/corina34_cracker 3.40 0067  02.08.2006

@<TRIPOS>MOLECULE
ASD03430444
  39   42    0    0    0
SMALL
NO_CHARGES


@<TRIPOS>ATOM
   1 N1            -0.4604     1.4126     1.0198 N.am    
   2 C2            -0.9671     0.4605     1.8222 C.2     
   3 C3             0.1503    -0.0430     2.6866 C.2     
   4 C4             1.3303     0.7379     2.2712 C.ar    
   5 C5             2.6623     0.7445     2.6870 C.ar    
   6 C6             3.5598     1.6099     2.0958 C.ar    
   7 C7             3.1392     2.4688     1.0939 C.ar    
   8 C8             1.8203     2.4712     0.6739 C.ar    
   9 C9             0.9000     1.6062     1.2560 C.ar    
  10 O10           -2.1183     0.0783     1.8433 O.2     
  11 O11            0.0954    -0.9036     3.5404 O.2     
  12 F12            1.4261     3.3159    -0.3040 F       
  13 C13           -1.2375     2.1490     0.0198 C.3     
  14 C14           -1.7447     1.1911    -1.0273 C.ar    
  15 C15           -2.7827     1.5642    -1.8605 C.ar    
  16 C16           -3.2480     0.6855    -2.8209 C.ar    
  17 C17           -2.6749    -0.5660    -2.9484 C.ar    
  18 C18           -1.6363    -0.9386    -2.1158 C.ar    
  19 C19           -1.1681    -0.0584    -1.1582 C.ar    
  20 C20           -2.4057     2.8254     0.6898 C.ar    
  21 C21           -2.3642     4.1832     0.9459 C.ar    
  22 C22           -3.4357     4.8037     1.5605 C.ar    
  23 C23           -4.5489     4.0665     1.9186 C.ar    
  24 C24           -4.5907     2.7088     1.6617 C.ar    
  25 C25           -3.5210     2.0892     1.0432 C.ar    
  26 H26            2.9894     0.0750     3.4688 H       
  27 H27            4.5915     1.6178     2.4150 H       
  28 H28            3.8473     3.1436     0.6361 H       
  29 H29           -0.6040     2.9004    -0.4515 H       
  30 H30           -3.2304     2.5419    -1.7609 H       
  31 H31           -4.0594     0.9767    -3.4714 H       
  32 H32           -3.0389    -1.2527    -3.6983 H       
  33 H33           -1.1888    -1.9165    -2.2152 H       
  34 H34           -0.3542    -0.3482    -0.5102 H       
  35 H35           -1.4945     4.7592     0.6661 H       
  36 H36           -3.4030     5.8644     1.7613 H       
  37 H37           -5.3857     4.5511     2.3995 H       
  38 H38           -5.4603     2.1328     1.9418 H       
  39 H39           -3.5552     1.0292     0.8391 H       
@<TRIPOS>BOND
   1    1    2 am
   2    1    9 1
   3    1   13 1
   4    2    3 1
   5    2   10 2
   6    3    4 1
   7    3   11 2
   8    4    5 ar
   9    4    9 ar
  10    5    6 ar
  11    5   26 1
  12    6    7 ar
  13    6   27 1
  14    7    8 ar
  15    7   28 1
  16    8    9 ar
  17    8   12 1
  18   13   14 1
  19   13   20 1
  20   13   29 1
  21   14   15 ar
  22   14   19 ar
  23   15   16 ar
  24   15   30 1
  25   16   17 ar
  26   16   31 1
  27   17   18 ar
  28   17   32 1
  29   18   19 ar
  30   18   33 1
  31   19   34 1
  32   20   21 ar
  33   20   25 ar
  34   21   22 ar
  35   21   35 1
  36   22   23 ar
  37   22   36 1
  38   23   24 ar
  39   23   37 1
  40   24   25 ar
  41   24   38 1
  42   25   39 1

#	End of record

