#	Name: ASD09890065
#	Creating user name:	WinNT
#	Creation time:	15. 06. 2019 21:24

#	Modifying user name:	WinNT
#	Modification time:	15. 06. 2019 21:24

#	Program:	/corina/corina34_cracker 3.40 0067  02.08.2006

@<TRIPOS>MOLECULE
ASD09890065
  48   51    0    0    0
SMALL
NO_CHARGES


@<TRIPOS>ATOM
   1 N1            -0.0154     1.2810     0.0091 N.2     
   2 N2             0.0021    -0.0041     0.0020 N.2     
   3 C3             1.2399    -0.4338    -0.0121 C.2     
   4 N4             2.0468     0.6681    -0.0139 N.pl3   
   5 C5             1.2027     1.7448    -0.0001 C.2     
   6 C6             3.4494     0.6911    -0.0268 C.ar    
   7 C7             4.1429     0.2010    -1.1248 C.ar    
   8 C8             5.5239     0.2254    -1.1348 C.ar    
   9 C9             6.2155     0.7370    -0.0523 C.ar    
  10 C10            5.5274     1.2259     1.0428 C.ar    
  11 C11            4.1463     1.2093     1.0561 C.ar    
  12 C12            1.6062     3.1968     0.0034 C.3     
  13 O13            1.7470     3.6488     1.3517 O.3     
  14 C14            2.1095     4.9459     1.5329 C.ar    
  15 C15            2.2644     5.4514     2.8156 C.ar    
  16 C16            2.6329     6.7704     2.9971 C.ar    
  17 C17            2.8473     7.5865     1.9018 C.ar    
  18 C18            2.6931     7.0853     0.6224 C.ar    
  19 C19            2.3308     5.7653     0.4355 C.ar    
  20 O20            1.6433    -1.7277    -0.0222 O.3     
  21 N21            1.8080    -2.2892    -1.3631 N.3     
  22 C22            2.2454    -3.6900    -1.2972 C.3     
  23 C23            1.2069    -4.5449    -0.5419 C.3     
  24 C24            2.0008    -5.5650     0.2928 C.3     
  25 C25            3.4941    -5.2945     0.0156 C.3     
  26 C26            3.5330    -3.8164    -0.4457 C.3     
  27 H27            3.6031    -0.1994    -1.9702 H       
  28 H28            6.0640    -0.1558    -1.9889 H       
  29 H29            7.2954     0.7544    -0.0621 H       
  30 H30            6.0702     1.6250     1.8869 H       
  31 H31            3.6092     1.5954     1.9098 H       
  32 H32            2.5559     3.3112    -0.5192 H       
  33 H33            0.8410     3.7877    -0.4999 H       
  34 H34            2.0967     4.8145     3.6714 H       
  35 H35            2.7533     7.1645     3.9954 H       
  36 H36            3.1353     8.6174     2.0457 H       
  37 H37            2.8605     7.7249    -0.2315 H       
  38 H38            2.2152     5.3729    -0.5640 H       
  39 H39            0.9577    -2.2007    -1.8991 H       
  40 H40            2.4083    -4.0854    -2.2998 H       
  41 H41            0.6077    -3.9122     0.1130 H       
  42 H42            0.5630    -5.0638    -1.2519 H       
  43 H43            1.7870    -5.4274     1.3528 H       
  44 H44            1.7422    -6.5790    -0.0121 H       
  45 H45            4.0808    -5.4260     0.9247 H       
  46 H46            3.8604    -5.9504    -0.7742 H       
  47 H47            4.4178    -3.6243    -1.0526 H       
  48 H48            3.4972    -3.1433     0.4109 H       
@<TRIPOS>BOND
   1    1    2 1
   2    1    5 2
   3    2    3 2
   4    3    4 1
   5    3   20 1
   6    4    5 1
   7    4    6 1
   8    5   12 1
   9    6    7 ar
  10    6   11 ar
  11    7    8 ar
  12    7   27 1
  13    8    9 ar
  14    8   28 1
  15    9   10 ar
  16    9   29 1
  17   10   11 ar
  18   10   30 1
  19   11   31 1
  20   12   13 1
  21   12   32 1
  22   12   33 1
  23   13   14 1
  24   14   15 ar
  25   14   19 ar
  26   15   16 ar
  27   15   34 1
  28   16   17 ar
  29   16   35 1
  30   17   18 ar
  31   17   36 1
  32   18   19 ar
  33   18   37 1
  34   19   38 1
  35   20   21 1
  36   21   22 1
  37   21   39 1
  38   22   23 1
  39   22   26 1
  40   22   40 1
  41   23   24 1
  42   23   41 1
  43   23   42 1
  44   24   25 1
  45   24   43 1
  46   24   44 1
  47   25   26 1
  48   25   45 1
  49   25   46 1
  50   26   47 1
  51   26   48 1

#	End of record

