#	Name: ASD02198644
#	Creating user name:	WinNT
#	Creation time:	15. 06. 2019 20:19

#	Modifying user name:	WinNT
#	Modification time:	15. 06. 2019 20:19

#	Program:	/corina/corina34_cracker 3.40 0067  02.08.2006

@<TRIPOS>MOLECULE
ASD02198644
  53   57    0    0    0
SMALL
NO_CHARGES


@<TRIPOS>ATOM
   1 C1             0.1355     1.0851     0.2174 C.2     
   2 C2             0.1728    -0.2414    -0.0841 C.2     
   3 N3            -0.9676    -0.9272    -0.3303 N.pl3   
   4 N4            -2.1317    -0.3919    -0.2984 N.2     
   5 C5            -2.3103     0.8825    -0.0199 C.2     
   6 C6            -1.1350     1.7160     0.2690 C.2     
   7 C7            -0.8709    -2.2891    -0.6353 C.ar    
   8 C8            -0.8364    -2.7051    -1.9625 C.ar    
   9 C9            -0.7408    -4.0521    -2.2634 C.ar    
  10 C10           -0.6799    -4.9867    -1.2477 C.ar    
  11 C11           -0.7144    -4.5769     0.0793 C.ar    
  12 C12           -0.8035    -3.2271     0.3858 C.ar    
  13 C13           -3.6685     1.4630     0.0072 C.2     
  14 N14           -4.2437     2.1348     1.0489 N.pl3   
  15 N15           -5.5332     2.5117     0.6534 N.2     
  16 C16           -5.7380     2.0919    -0.5696 C.2     
  17 C17           -4.5914     1.4341    -1.0151 C.2     
  18 C18           -3.6500     2.3990     2.2897 C.ar    
  19 C19           -3.8111     3.6421     2.8875 C.ar    
  20 C20           -3.2244     3.8995     4.1110 C.ar    
  21 C21           -2.4768     2.9212     4.7405 C.ar    
  22 C22           -2.3142     1.6825     4.1477 C.ar    
  23 C23           -2.9039     1.4166     2.9274 C.ar    
  24 O24           -1.2460     2.9044     0.5333 O.2     
  25 O25            1.2768     1.7816     0.4666 O.3     
  26 C26            2.5069     1.0577     0.3967 C.3     
  27 F27           -0.8967    -1.7935    -2.9578 F       
  28 N28           -0.6530    -5.5259     1.1072 N.am    
  29 C29           -0.5759    -5.2238     2.4147 C.2     
  30 C30           -0.5162    -6.4910     3.2388 C.3     
  31 C31           -0.1495    -7.5914     2.2163 C.3     
  32 C32           -0.6708    -6.9781     0.8957 C.3     
  33 O33           -0.5567    -4.0989     2.8679 O.2     
  34 H34            1.1232    -0.7526    -0.1278 H       
  35 H35           -0.7142    -4.3736    -3.2940 H       
  36 H36           -0.6057    -6.0375    -1.4857 H       
  37 H37           -0.8301    -2.9070     1.4170 H       
  38 H38           -6.6435     2.2347    -1.1406 H       
  39 H39           -4.4545     0.9780    -1.9845 H       
  40 H40           -4.3942     4.4068     2.3960 H       
  41 H41           -3.3493     4.8661     4.5764 H       
  42 H42           -2.0188     3.1251     5.6971 H       
  43 H43           -1.7295     0.9206     4.6417 H       
  44 H44           -2.7768     0.4489     2.4650 H       
  45 H45            3.3368     1.7296     0.6158 H       
  46 H46            2.4934     0.2472     1.1254 H       
  47 H47            2.6288     0.6442    -0.6045 H       
  48 H48            0.2540    -6.4112     4.0060 H       
  49 H49           -1.4862    -6.6982     3.6908 H       
  50 H50            0.9288    -7.7466     2.1800 H       
  51 H51           -0.6688    -8.5228     2.4424 H       
  52 H52           -1.6847    -7.3235     0.6937 H       
  53 H53           -0.0100    -7.2426     0.0702 H       
@<TRIPOS>BOND
   1    1    2 2
   2    1   25 1
   3    1    6 1
   4    2    3 1
   5    2   34 1
   6    3    4 1
   7    3    7 1
   8    4    5 2
   9    5    6 1
  10    5   13 1
  11    6   24 2
  12    7    8 ar
  13    7   12 ar
  14    8    9 ar
  15    8   27 1
  16    9   10 ar
  17    9   35 1
  18   10   11 ar
  19   10   36 1
  20   11   12 ar
  21   11   28 1
  22   12   37 1
  23   13   14 1
  24   13   17 2
  25   14   15 1
  26   14   18 1
  27   15   16 2
  28   16   17 1
  29   16   38 1
  30   17   39 1
  31   18   19 ar
  32   18   23 ar
  33   19   20 ar
  34   19   40 1
  35   20   21 ar
  36   20   41 1
  37   21   22 ar
  38   21   42 1
  39   22   23 ar
  40   22   43 1
  41   23   44 1
  42   25   26 1
  43   26   45 1
  44   26   46 1
  45   26   47 1
  46   28   29 am
  47   28   32 1
  48   29   30 1
  49   29   33 2
  50   30   31 1
  51   30   48 1
  52   30   49 1
  53   31   32 1
  54   31   50 1
  55   31   51 1
  56   32   52 1
  57   32   53 1

#	End of record

