#	Name: ASD01914905
#	Creating user name:	WinNT
#	Creation time:	15. 06. 2019 20:04

#	Modifying user name:	WinNT
#	Modification time:	15. 06. 2019 20:04

#	Program:	/corina/corina34_cracker 3.40 0067  02.08.2006

@<TRIPOS>MOLECULE
ASD01914905
  41   43    0    0    0
SMALL
NO_CHARGES


@<TRIPOS>ATOM
   1 C1             0.0025     1.3759     0.1525 C.ar    
   2 N2             0.0304     0.0471     0.1291 N.ar    
   3 C3             1.1657    -0.6189     0.1343 C.ar    
   4 C4             2.3800     0.0450     0.1645 C.ar    
   5 C5             2.3978     1.4322     0.1895 C.ar    
   6 C6             1.1906     2.1091     0.1834 C.ar    
   7 N7            -1.1984     2.0298     0.1403 N.2     
   8 N8            -2.2987     1.3573     0.1064 N.2     
   9 C9            -3.4961     2.0093     0.0943 C.ar    
  10 C10           -5.9303     3.3419     0.0697 C.ar    
  11 C11           -5.9007     1.9459     0.0511 C.ar    
  12 C12           -4.6911     1.2810     0.0632 C.ar    
  13 C13           -3.5333     3.4077     0.1187 C.ar    
  14 C14           -4.7438     4.0649     0.1064 C.ar    
  15 O15           -7.0633     1.2415     0.0156 O.3     
  16 C16           -6.9582    -0.1835    -0.0018 C.3     
  17 N17           -7.1546     4.0127     0.0569 N.am    
  18 C18           -7.2305     5.2673    -0.4296 C.2     
  19 C19           -8.5396     5.9456    -0.5224 C.ar    
  20 O20           -6.2216     5.8407    -0.7921 O.2     
  21 C21          -10.9945     7.2174    -0.6964 C.ar    
  22 C22          -10.9184     5.9310    -0.1910 C.ar    
  23 C23           -9.6997     5.2921    -0.1016 C.ar    
  24 C24           -8.6220     7.2461    -1.0262 C.ar    
  25 C25           -9.8499     7.8737    -1.1099 C.ar    
  26 Cl26          -7.1855     8.0713    -1.5451 Cl      
  27 H27            1.1496    -1.6987     0.1151 H       
  28 H28            3.3054    -0.5118     0.1688 H       
  29 H29            3.3330     1.9719     0.2136 H       
  30 H30            1.1677     3.1887     0.2020 H       
  31 H31           -4.6667     0.2014     0.0485 H       
  32 H32           -2.6128     3.9720     0.1475 H       
  33 H33           -4.7710     5.1444     0.1204 H       
  34 H34           -7.9561    -0.6211    -0.0298 H       
  35 H35           -6.3996    -0.4959    -0.8840 H       
  36 H36           -6.4388    -0.5205     0.8953 H       
  37 H37           -7.9506     3.5759     0.3982 H       
  38 H38          -11.9520     7.7124    -0.7642 H       
  39 H39          -11.8167     5.4246     0.1301 H       
  40 H40           -9.6425     4.2883     0.2927 H       
  41 H41           -9.9164     8.8774    -1.5032 H       
@<TRIPOS>BOND
   1    1    2 ar
   2    1    6 ar
   3    1    7 1
   4    2    3 ar
   5    3    4 ar
   6    3   27 1
   7    4    5 ar
   8    4   28 1
   9    5    6 ar
  10    5   29 1
  11    6   30 1
  12    7    8 2
  13    8    9 1
  14    9   13 ar
  15    9   12 ar
  16   10   11 ar
  17   10   14 ar
  18   10   17 1
  19   11   12 ar
  20   11   15 1
  21   12   31 1
  22   13   14 ar
  23   13   32 1
  24   14   33 1
  25   15   16 1
  26   16   34 1
  27   16   35 1
  28   16   36 1
  29   17   18 am
  30   17   37 1
  31   18   19 1
  32   18   20 2
  33   19   24 ar
  34   19   23 ar
  35   21   22 ar
  36   21   25 ar
  37   21   38 1
  38   22   23 ar
  39   22   39 1
  40   23   40 1
  41   24   25 ar
  42   24   26 1
  43   25   41 1

#	End of record

