#	Name: ASD08150903
#	Creating user name:	WinNT
#	Creation time:	15. 06. 2019 21:16

#	Modifying user name:	WinNT
#	Modification time:	15. 06. 2019 21:16

#	Program:	/corina/corina34_cracker 3.40 0067  02.08.2006

@<TRIPOS>MOLECULE
ASD08150903
  46   50    0    0    0
SMALL
NO_CHARGES


@<TRIPOS>ATOM
   1 N1            -0.2732     1.4102     0.0576 N.2     
   2 C2            -0.6777     0.2774     0.5545 C.2     
   3 N3            -0.3476     0.2037     1.8750 N.pl3   
   4 C4             0.3000     1.3681     2.2027 C.ar    
   5 N5             0.8426     1.8601     3.3115 N.ar    
   6 C6             1.4108     3.0476     3.3107 C.ar    
   7 N7             1.4726     3.8030     2.2294 N.ar    
   8 C8             0.9574     3.3948     1.0742 C.ar    
   9 C9             0.3404     2.1334     1.0248 C.ar    
  10 N10            1.0266     4.1938    -0.0536 N.pl3   
  11 C11            1.6735     5.5064     0.0171 C.3     
  12 C12            2.1612     5.9103    -1.3757 C.3     
  13 N13            0.6199     9.7944     2.1268 N.ar    
  14 C14           -0.2386    10.6845     2.5639 C.ar    
  15 C15           -1.6135    10.4856     2.4647 C.ar    
  16 C16           -2.0971     9.3393     1.9005 C.ar    
  17 C17           -1.1717     8.3872     1.4331 C.ar    
  18 C18           -1.5970     7.1855     0.8412 C.ar    
  19 C19           -0.6773     6.2813     0.3973 C.ar    
  20 C20            0.6850     6.5272     0.5189 C.ar    
  21 C21            1.1446     7.6979     1.0956 C.ar    
  22 C22            0.2125     8.6541     1.5656 C.ar    
  23 C23            2.5994     7.9484     1.2206 C.ar    
  24 C24            3.1914     8.9985     0.5198 C.ar    
  25 C25            4.5488     9.2272     0.6410 C.ar    
  26 C26            5.3200     8.4148     1.4570 C.ar    
  27 C27            4.7365     7.3722     2.1532 C.ar    
  28 C28            3.3806     7.1383     2.0440 C.ar    
  29 F29            5.1250    10.2437    -0.0373 F       
  30 Cl30          -3.2925     6.8516     0.6761 Cl      
  31 H31           -1.1983    -0.4909     0.0021 H       
  32 H32           -0.5363    -0.5360     2.4734 H       
  33 H33            1.8423     3.4180     4.2288 H       
  34 H34            0.6469     3.8848    -0.8910 H       
  35 H35            2.5224     5.4568     0.6991 H       
  36 H36            2.6424     6.8869    -1.3231 H       
  37 H37            2.8762     5.1720    -1.7386 H       
  38 H38            1.3123     5.9599    -2.0576 H       
  39 H39            0.1302    11.5951     3.0125 H       
  40 H40           -2.2964    11.2365     2.8338 H       
  41 H41           -3.1601     9.1682     1.8158 H       
  42 H42           -1.0130     5.3603    -0.0560 H       
  43 H43            2.5905     9.6314    -0.1165 H       
  44 H44            6.3806     8.5965     1.5494 H       
  45 H45            5.3425     6.7419     2.7872 H       
  46 H46            2.9261     6.3265     2.5923 H       
@<TRIPOS>BOND
   1    1    2 2
   2    1    9 1
   3    2    3 1
   4    2   31 1
   5    3    4 1
   6    3   32 1
   7    4    5 ar
   8    4    9 ar
   9    5    6 ar
  10    6    7 ar
  11    6   33 1
  12    7    8 ar
  13    8    9 ar
  14    8   10 1
  15   10   11 1
  16   10   34 1
  17   11   12 1
  18   11   20 1
  19   11   35 1
  20   12   36 1
  21   12   37 1
  22   12   38 1
  23   13   14 ar
  24   13   22 ar
  25   14   15 ar
  26   14   39 1
  27   15   16 ar
  28   15   40 1
  29   16   17 ar
  30   16   41 1
  31   17   18 ar
  32   17   22 ar
  33   18   19 ar
  34   18   30 1
  35   19   20 ar
  36   19   42 1
  37   20   21 ar
  38   21   22 ar
  39   21   23 1
  40   23   24 ar
  41   23   28 ar
  42   24   25 ar
  43   24   43 1
  44   25   26 ar
  45   25   29 1
  46   26   27 ar
  47   26   44 1
  48   27   28 ar
  49   27   45 1
  50   28   46 1

#	End of record

