#	Name: ASD01915237
#	Creating user name:	WinNT
#	Creation time:	15. 06. 2019 20:05

#	Modifying user name:	WinNT
#	Modification time:	15. 06. 2019 20:05

#	Program:	/corina/corina34_cracker 3.40 0067  02.08.2006

@<TRIPOS>MOLECULE
ASD01915237
  33   34    0    0    0
SMALL
NO_CHARGES


@<TRIPOS>ATOM
   1 C1             0.1162     1.1303    -0.7288 C.ar    
   2 C2             0.0100    -0.0150     0.0632 C.ar    
   3 C3            -1.1708    -0.7350     0.0879 C.ar    
   4 C4            -2.2521    -0.3259    -0.6704 C.ar    
   5 C5            -2.1575     0.8186    -1.4662 C.ar    
   6 C6            -0.9722     1.5510    -1.4904 C.ar    
   7 F7            -1.2677    -1.8425     0.8556 F       
   8 C8             1.3791     1.8983    -0.7545 C.2     
   9 N9             2.4293     1.4934    -0.0131 N.am    
  10 O10            1.4704     2.8951    -1.4443 O.2     
  11 C11            3.6538     2.1617    -0.1115 C.ar    
  12 C12            3.6827     3.5362    -0.3074 C.ar    
  13 C13            4.8938     4.1933    -0.4042 C.ar    
  14 C14            6.0766     3.4839    -0.3067 C.ar    
  15 C15            6.0514     2.1148    -0.1120 C.ar    
  16 C16            4.8440     1.4529    -0.0078 C.ar    
  17 C17            7.3430     1.3456    -0.0073 C.3     
  18 C18            7.7852     1.2882     1.4562 C.3     
  19 C19           -3.2782     1.2413    -2.2511 C.1     
  20 N20           -4.1672     1.5767    -2.8738 N.1     
  21 H21            0.8516    -0.3394     0.6572 H       
  22 H22           -3.1715    -0.8923    -0.6479 H       
  23 H23           -0.8946     2.4366    -2.1037 H       
  24 H24            2.3358     0.7384     0.5887 H       
  25 H25            2.7591     4.0908    -0.3843 H       
  26 H26            4.9169     5.2622    -0.5565 H       
  27 H27            7.0222     3.9999    -0.3830 H       
  28 H28            4.8250     0.3838     0.1442 H       
  29 H29            7.1941     0.3328    -0.3819 H       
  30 H30            8.1111     1.8428    -0.5997 H       
  31 H31            8.7195     0.7318     1.5320 H       
  32 H32            7.9341     2.3009     1.8308 H       
  33 H33            7.0172     0.7909     2.0486 H       
@<TRIPOS>BOND
   1    1    2 ar
   2    1    8 1
   3    1    6 ar
   4    2    3 ar
   5    2   21 1
   6    3    4 ar
   7    3    7 1
   8    4    5 ar
   9    4   22 1
  10    5    6 ar
  11    5   19 1
  12    6   23 1
  13    8    9 am
  14    8   10 2
  15    9   11 1
  16    9   24 1
  17   11   12 ar
  18   11   16 ar
  19   12   13 ar
  20   12   25 1
  21   13   14 ar
  22   13   26 1
  23   14   15 ar
  24   14   27 1
  25   15   16 ar
  26   15   17 1
  27   16   28 1
  28   17   18 1
  29   17   29 1
  30   17   30 1
  31   18   31 1
  32   18   32 1
  33   18   33 1
  34   19   20 3

#	End of record

