#	Name: ASD01148084
#	Creating user name:	WinNT
#	Creation time:	15. 06. 2019 19:02

#	Modifying user name:	WinNT
#	Modification time:	15. 06. 2019 19:02

#	Program:	/corina/corina34_cracker 3.40 0067  02.08.2006

@<TRIPOS>MOLECULE
ASD01148084
  47   50    0    0    0
SMALL
NO_CHARGES


@<TRIPOS>ATOM
   1 C1            -0.0187     1.5258     0.0104 C.3     
   2 C2             0.0021    -0.0041     0.0020 C.3     
   3 C3             0.7421    -0.5109     1.2415 C.3     
   4 O4            -1.3386    -0.4987     0.0122 O.3     
   5 C5             1.7374    -3.2116    -4.6962 C.2     
   6 N6             0.8834    -3.2603    -3.7162 N.2     
   7 C7             1.0034    -2.1464    -2.9481 C.ar    
   8 C8             2.0195    -1.3613    -3.5191 C.ar    
   9 N9             2.4660    -2.0615    -4.6252 N.pl3   
  10 C10            0.3503    -1.6954    -1.7984 C.ar    
  11 C11            0.7074    -0.4901    -1.2379 C.ar    
  12 C12            1.7113     0.2812    -1.8055 C.ar    
  13 C13            2.3658    -0.1490    -2.9405 C.ar    
  14 C14            5.4975    -2.0964    -6.7212 C.ar    
  15 C15            4.5114    -2.5313    -5.8404 C.ar    
  16 C16            3.4767    -1.6642    -5.5058 C.ar    
  17 C17            3.4715    -0.3887    -6.0706 C.ar    
  18 C18            4.4843    -0.0295    -6.9363 C.ar    
  19 N19            5.4527    -0.8730    -7.2351 N.ar    
  20 C20            7.6128    -2.5864    -7.9684 C.ar    
  21 C21            6.6111    -3.0052    -7.0839 C.ar    
  22 C22            6.6792    -4.2928    -6.5495 C.ar    
  23 C23            7.7401    -5.1038    -6.9192 C.ar    
  24 C24            8.6905    -4.6197    -7.7976 C.ar    
  25 N25            8.6047    -3.3983    -8.2899 N.ar    
  26 O26            7.5616    -1.3415    -8.5027 O.3     
  27 C27            8.6139    -0.9759    -9.3978 C.3     
  28 H28            1.0039     1.9031     0.0027 H       
  29 H29           -0.5459     1.8868    -0.8726 H       
  30 H30           -0.5289     1.8773     0.9072 H       
  31 H31            0.2319    -0.1594     2.1383 H       
  32 H32            0.7568    -1.6008     1.2356 H       
  33 H33            1.7647    -0.1336     1.2338 H       
  34 H34           -1.4018    -1.4636     0.0076 H       
  35 H35            1.8553    -3.9732    -5.4528 H       
  36 H36           -0.4323    -2.2903    -1.3512 H       
  37 H37            1.9818     1.2250    -1.3556 H       
  38 H38            3.1466     0.4559    -3.3773 H       
  39 H39            4.5490    -3.5268    -5.4234 H       
  40 H40            2.6831     0.3101    -5.8332 H       
  41 H41            4.4836     0.9570    -7.3759 H       
  42 H42            5.9238    -4.6480    -5.8643 H       
  43 H43            7.8235    -6.1055    -6.5241 H       
  44 H44            9.5177    -5.2514    -8.0858 H       
  45 H45            9.5698    -1.0320    -8.8770 H       
  46 H46            8.6222    -1.6590   -10.2471 H       
  47 H47            8.4523     0.0422    -9.7520 H       
@<TRIPOS>BOND
   1    1    2 1
   2    1   28 1
   3    1   29 1
   4    1   30 1
   5    2    3 1
   6    2    4 1
   7    2   11 1
   8    3   31 1
   9    3   32 1
  10    3   33 1
  11    4   34 1
  12    5    6 2
  13    5    9 1
  14    5   35 1
  15    6    7 1
  16    7    8 ar
  17    7   10 ar
  18    8    9 1
  19    8   13 ar
  20    9   16 1
  21   10   11 ar
  22   10   36 1
  23   11   12 ar
  24   12   13 ar
  25   12   37 1
  26   13   38 1
  27   14   15 ar
  28   14   19 ar
  29   14   21 1
  30   15   16 ar
  31   15   39 1
  32   16   17 ar
  33   17   18 ar
  34   17   40 1
  35   18   19 ar
  36   18   41 1
  37   20   21 ar
  38   20   25 ar
  39   20   26 1
  40   21   22 ar
  41   22   23 ar
  42   22   42 1
  43   23   24 ar
  44   23   43 1
  45   24   25 ar
  46   24   44 1
  47   26   27 1
  48   27   45 1
  49   27   46 1
  50   27   47 1

#	End of record

