#	Name: ASD05992001
#	Creating user name:	WinNT
#	Creation time:	15. 06. 2019 21:04

#	Modifying user name:	WinNT
#	Modification time:	15. 06. 2019 21:04

#	Program:	/corina/corina34_cracker 3.40 0067  02.08.2006

@<TRIPOS>MOLECULE
ASD05992001
  55   56    0    0    0
SMALL
NO_CHARGES


@<TRIPOS>ATOM
   1 C1             0.4100     1.3325     0.7283 C.2     
   2 C2             0.0174     0.3607    -0.1124 C.2     
   3 C3             0.9848    -0.3236    -1.0350 C.3     
   4 C4             2.2555     0.4683    -1.1598 C.2     
   5 C5             2.5663     1.4480    -0.2701 C.2     
   6 N6             1.7132     1.7442     0.7698 N.pl3   
   7 C7            -1.3418    -0.0282    -0.1286 C.2     
   8 O8            -2.0501     0.2743    -1.0708 O.2     
   9 O9            -1.8538    -0.7348     0.9009 O.3     
  10 C10            3.1414     0.1907    -2.2190 C.2     
  11 O11            4.1105     0.9039    -2.4049 O.2     
  12 O12            2.9160    -0.8665    -3.0282 O.3     
  13 C13            3.8287     2.1997    -0.4191 C.ar    
  14 C14            3.8018     3.5646    -0.7136 C.ar    
  15 C15            4.9847     4.2606    -0.8509 C.ar    
  16 C16            6.1961     3.6096    -0.6976 C.ar    
  17 C17            6.2301     2.2573    -0.4062 C.ar    
  18 C18            5.0548     1.5501    -0.2605 C.ar    
  19 C19           -0.6029     1.9831     1.6349 C.3     
  20 S20           -3.3276    -1.0802     0.7424 S.3     
  21 C21           -3.6946    -2.0073     2.2578 C.3     
  22 C22           -3.7915    -1.0382     3.4377 C.3     
  23 O23           -4.0806    -1.7685     4.6315 O.3     
  24 C24           -4.1925    -0.9526     5.7993 C.3     
  25 C25            3.8551    -1.0887    -4.0821 C.3     
  26 C26            3.4369    -2.3212    -4.8864 C.3     
  27 C27            1.3098    -1.7130    -0.4830 C.3     
  28 C28            0.0575    -2.5901    -0.5398 C.3     
  29 H29            0.5290    -0.4274    -2.0197 H       
  30 H30            2.0375     2.2467     1.5335 H       
  31 H31            2.8570     4.0739    -0.8338 H       
  32 H32            4.9654     5.3161    -1.0790 H       
  33 H33            7.1193     4.1594    -0.8062 H       
  34 H34            7.1791     1.7552    -0.2886 H       
  35 H35            5.0828     0.4957    -0.0286 H       
  36 H36           -0.7200     1.3840     2.5379 H       
  37 H37           -0.2608     2.9825     1.9038 H       
  38 H38           -1.5603     2.0534     1.1188 H       
  39 H39           -4.6420    -2.5337     2.1412 H       
  40 H40           -2.8989    -2.7285     2.4443 H       
  41 H41           -2.8441    -0.5119     3.5543 H       
  42 H42           -4.5872    -0.3170     3.2513 H       
  43 H43           -3.2534    -0.4245     5.9649 H       
  44 H44           -4.9965    -0.2297     5.6618 H       
  45 H45           -4.4127    -1.5813     6.6621 H       
  46 H46            3.8786    -0.2180    -4.7374 H       
  47 H47            4.8459    -1.2508    -3.6576 H       
  48 H48            4.1533    -2.4907    -5.6903 H       
  49 H49            3.4134    -3.1919    -4.2311 H       
  50 H50            2.4461    -2.1590    -5.3109 H       
  51 H51            2.0988    -2.1668    -1.0827 H       
  52 H52            1.6446    -1.6242     0.5505 H       
  53 H53            0.3210    -3.6167    -0.2851 H       
  54 H54           -0.6799    -2.2172     0.1710 H       
  55 H55           -0.3608    -2.5614    -1.5460 H       
@<TRIPOS>BOND
   1    1    2 2
   2    1    6 1
   3    1   19 1
   4    2    3 1
   5    2    7 1
   6    3    4 1
   7    3   27 1
   8    3   29 1
   9    4    5 2
  10    4   10 1
  11    5    6 1
  12    5   13 1
  13    6   30 1
  14    7    8 2
  15    7    9 1
  16    9   20 1
  17   10   11 2
  18   10   12 1
  19   12   25 1
  20   13   14 ar
  21   13   18 ar
  22   14   15 ar
  23   14   31 1
  24   15   16 ar
  25   15   32 1
  26   16   17 ar
  27   16   33 1
  28   17   18 ar
  29   17   34 1
  30   18   35 1
  31   19   36 1
  32   19   37 1
  33   19   38 1
  34   20   21 1
  35   21   22 1
  36   21   39 1
  37   21   40 1
  38   22   23 1
  39   22   41 1
  40   22   42 1
  41   23   24 1
  42   24   43 1
  43   24   44 1
  44   24   45 1
  45   25   26 1
  46   25   46 1
  47   25   47 1
  48   26   48 1
  49   26   49 1
  50   26   50 1
  51   27   28 1
  52   27   51 1
  53   27   52 1
  54   28   53 1
  55   28   54 1
  56   28   55 1

#	End of record

