#	Name: ASD00061039
#	Creating user name:	WinNT
#	Creation time:	15. 06. 2019 18:29

#	Modifying user name:	WinNT
#	Modification time:	15. 06. 2019 18:29

#	Program:	/corina/corina34_cracker 3.40 0067  02.08.2006

@<TRIPOS>MOLECULE
ASD00061039
  45   47    0    0    0
SMALL
NO_CHARGES


@<TRIPOS>ATOM
   1 C1            -1.2495    -0.8023    -0.4740 C.ar    
   2 C2            -1.7690    -2.1220    -0.4777 C.ar    
   3 C3            -3.1575    -2.3256    -0.3676 C.ar    
   4 C4            -3.9936    -1.2632    -0.2586 C.ar    
   5 C5            -3.4912     0.0532    -0.2535 C.ar    
   6 C6            -2.1273     0.2859    -0.3658 C.ar    
   7 C7            -4.4185     1.1885    -0.1340 C.2     
   8 C8            -5.9006     0.9418    -0.0176 C.3     
   9 O9            -3.9904     2.3231    -0.1292 O.2     
  10 C10           -6.6195     2.2674     0.2411 C.3     
  11 C11           -8.1095     2.0422     0.2254 C.ar    
  12 C12           -8.8998     2.7098    -0.6915 C.ar    
  13 C13          -10.2666     2.5032    -0.7058 C.ar    
  14 C14          -10.8429     1.6288     0.1964 C.ar    
  15 C15          -10.0525     0.9605     1.1127 C.ar    
  16 C16           -8.6852     1.1638     1.1242 C.ar    
  17 C17            0.1394    -0.6072    -0.5849 C.ar    
  18 C18            0.9641    -1.6843    -0.6939 C.ar    
  19 C19            0.4531    -2.9808    -0.6975 C.ar    
  20 C20           -0.8854    -3.2076    -0.5920 C.ar    
  21 C21           -6.2010     2.8165     1.6064 C.3     
  22 C22           -6.9879     4.0659     1.9080 C.2     
  23 O23           -7.6497     4.1344     2.9165 O.2     
  24 O24           -6.9535     5.1027     1.0561 O.3     
  25 C25           -6.4733     1.7828     2.6686 C.2     
  26 O26           -7.4817     1.8483     3.3309 O.2     
  27 O27           -5.5956     0.7892     2.8788 O.3     
  28 H28           -3.5575    -3.3288    -0.3704 H       
  29 H29           -5.0576    -1.4282    -0.1750 H       
  30 H30           -1.7449     1.2959    -0.3616 H       
  31 H31           -6.2698     0.5031    -0.9446 H       
  32 H32           -6.0912     0.2577     0.8093 H       
  33 H33           -6.3521     2.9834    -0.5360 H       
  34 H34           -8.4495     3.3930    -1.3963 H       
  35 H35          -10.8841     3.0253    -1.4217 H       
  36 H36          -11.9108     1.4680     0.1857 H       
  37 H37          -10.5029     0.2776     1.8178 H       
  38 H38           -8.0677     0.6416     1.8400 H       
  39 H39            0.5490     0.3921    -0.5838 H       
  40 H40            2.0299    -1.5321    -0.7793 H       
  41 H41            1.1291    -3.8185    -0.7856 H       
  42 H42           -1.2660    -4.2184    -0.5963 H       
  43 H43           -5.1368     3.0518     1.5928 H       
  44 H44           -7.5318     5.8523     1.2533 H       
  45 H45           -5.8136     0.1500     3.5709 H       
@<TRIPOS>BOND
   1    1    2 ar
   2    1   17 ar
   3    1    6 ar
   4    2    3 ar
   5    2   20 ar
   6    3    4 ar
   7    3   28 1
   8    4    5 ar
   9    4   29 1
  10    5    6 ar
  11    5    7 1
  12    6   30 1
  13    7    8 1
  14    7    9 2
  15    8   10 1
  16    8   31 1
  17    8   32 1
  18   10   11 1
  19   10   21 1
  20   10   33 1
  21   11   12 ar
  22   11   16 ar
  23   12   13 ar
  24   12   34 1
  25   13   14 ar
  26   13   35 1
  27   14   15 ar
  28   14   36 1
  29   15   16 ar
  30   15   37 1
  31   16   38 1
  32   17   18 ar
  33   17   39 1
  34   18   19 ar
  35   18   40 1
  36   19   20 ar
  37   19   41 1
  38   20   42 1
  39   21   22 1
  40   21   25 1
  41   21   43 1
  42   22   23 2
  43   22   24 1
  44   24   44 1
  45   25   26 2
  46   25   27 1
  47   27   45 1

#	End of record

