#	Name: ASD03330583
#	Creating user name:	WinNT
#	Creation time:	15. 06. 2019 20:37

#	Modifying user name:	WinNT
#	Modification time:	15. 06. 2019 20:37

#	Program:	/corina/corina34_cracker 3.40 0067  02.08.2006

@<TRIPOS>MOLECULE
ASD03330583
  60   62    0    0    0
SMALL
NO_CHARGES


@<TRIPOS>ATOM
   1 C1            -0.3242     1.1701     0.8514 C.2     
   2 N2            -0.3534    -0.1686     1.0855 N.pl3   
   3 C3             0.9812     1.5560     0.8965 C.2     
   4 N4             1.7279     0.4564     1.1379 N.2     
   5 C5             0.9358    -0.5842     1.2471 C.2     
   6 C6             1.3688    -1.9757     1.5022 C.ar    
   7 C7             1.4883     2.9275     0.7138 C.2     
   8 O8             0.7124     3.8393     0.4999 O.2     
   9 C9             3.3162     4.5348     0.6021 C.3     
  10 N10            2.8120     3.1714     0.7837 N.am    
  11 C11            3.4915     4.8191    -0.8910 C.3     
  12 C12            2.1239     4.8042    -1.5770 C.3     
  13 C13            4.1398     6.1925    -1.0760 C.3     
  14 C14            4.3859     3.7449    -1.5131 C.3     
  15 C15            4.6445     4.6763     1.2997 C.2     
  16 N16            5.1813     5.8985     1.4855 N.am    
  17 O17            5.2304     3.6903     1.6940 O.2     
  18 C18            6.5052     6.0316     2.0986 C.3     
  19 C19           -1.5634    -0.9920     1.1607 C.3     
  20 C20           -2.4707    -0.6613    -0.0284 C.3     
  21 C21           -3.3820     0.5088     0.3278 C.3     
  22 N22           -2.7047     1.4513     1.2205 N.3     
  23 C23           -1.5220     2.0418     0.5764 C.3     
  24 C24           -3.6288     2.4955     1.6828 C.3     
  25 C25            0.9336    -4.1552     2.4136 C.ar    
  26 C26            2.1775    -4.5821     1.9823 C.ar    
  27 C27            3.0231    -3.7082     1.3151 C.ar    
  28 C28            2.6242    -2.4079     1.0735 C.ar    
  29 C29            0.5256    -2.8584     2.1773 C.ar    
  30 Cl30           2.6838    -6.2151     2.2833 Cl      
  31 F31            4.2363    -4.1305     0.8969 F       
  32 H32            2.6057     5.2444     1.0261 H       
  33 H33            3.4308     2.4441     0.9543 H       
  34 H34            1.4867     5.5694    -1.1338 H       
  35 H35            2.2488     5.0067    -2.6407 H       
  36 H36            1.6620     3.8257    -1.4452 H       
  37 H37            5.0990     6.2142    -0.5586 H       
  38 H38            4.2957     6.3806    -2.1383 H       
  39 H39            3.4867     6.9613    -0.6629 H       
  40 H40            3.9240     2.7665    -1.3813 H       
  41 H41            4.5107     3.9475    -2.5768 H       
  42 H42            5.3601     3.7556    -1.0244 H       
  43 H43            4.6910     6.6900     1.2133 H       
  44 H44            7.2424     5.5103     1.4880 H       
  45 H45            6.7700     7.0868     2.1659 H       
  46 H46            6.4882     5.5968     3.0979 H       
  47 H47           -1.2892    -2.0464     1.1277 H       
  48 H48           -2.0906    -0.7806     2.0910 H       
  49 H49           -1.8574    -0.3942    -0.8890 H       
  50 H50           -3.0784    -1.5323    -0.2739 H       
  51 H51           -3.6721     1.0273    -0.5860 H       
  52 H52           -4.2762     0.1283     0.8214 H       
  53 H53           -1.3472     3.0392     0.9797 H       
  54 H54           -1.6868     2.1060    -0.4992 H       
  55 H55           -4.4561     2.0353     2.2230 H       
  56 H56           -3.1001     3.1819     2.3441 H       
  57 H57           -4.0160     3.0440     0.8241 H       
  58 H58            0.2792    -4.8398     2.9326 H       
  59 H59            3.2825    -1.7276     0.5537 H       
  60 H60           -0.4453    -2.5271     2.5150 H       
@<TRIPOS>BOND
   1    1    2 1
   2    1    3 2
   3    1   23 1
   4    2   19 1
   5    2    5 1
   6    3    4 1
   7    3    7 1
   8    4    5 2
   9    5    6 1
  10    6   29 ar
  11    6   28 ar
  12    7    8 2
  13    7   10 am
  14    9   10 1
  15    9   11 1
  16    9   15 1
  17    9   32 1
  18   10   33 1
  19   11   12 1
  20   11   13 1
  21   11   14 1
  22   12   34 1
  23   12   35 1
  24   12   36 1
  25   13   37 1
  26   13   38 1
  27   13   39 1
  28   14   40 1
  29   14   41 1
  30   14   42 1
  31   15   16 am
  32   15   17 2
  33   16   18 1
  34   16   43 1
  35   18   44 1
  36   18   45 1
  37   18   46 1
  38   19   20 1
  39   19   47 1
  40   19   48 1
  41   20   21 1
  42   20   49 1
  43   20   50 1
  44   21   22 1
  45   21   51 1
  46   21   52 1
  47   22   23 1
  48   22   24 1
  49   23   53 1
  50   23   54 1
  51   24   55 1
  52   24   56 1
  53   24   57 1
  54   25   26 ar
  55   25   29 ar
  56   25   58 1
  57   26   27 ar
  58   26   30 1
  59   27   28 ar
  60   27   31 1
  61   28   59 1
  62   29   60 1

#	End of record

