#	Name: ASD01880382
#	Creating user name:	WinNT
#	Creation time:	15. 06. 2019 19:40

#	Modifying user name:	WinNT
#	Modification time:	15. 06. 2019 19:40

#	Program:	/corina/corina34_cracker 3.40 0067  02.08.2006

@<TRIPOS>MOLECULE
ASD01880382
  38   39    0    0    0
SMALL
NO_CHARGES


@<TRIPOS>ATOM
   1 C1             0.8497     1.0268     0.3791 C.ar    
   2 N2             0.6942    -0.2835     0.3198 N.ar    
   3 C3             1.7371    -1.1001     0.3459 C.ar    
   4 C4             3.0398    -0.5467     0.4393 C.ar    
   5 C5             3.1480     0.8454     0.4991 C.ar    
   6 N6             2.0338     1.5872     0.4661 N.ar    
   7 C7             4.3368    -1.1950     0.4864 C.2     
   8 C8             5.3638    -0.3724     0.5753 C.2     
   9 S9             4.8416     1.3012     0.6109 S.3     
  10 C10            6.8032    -0.8145     0.6383 C.3     
  11 N11            1.5585    -2.4703     0.2835 N.pl3   
  12 C12            7.3703    -0.9085    -0.7796 C.3     
  13 C13            0.2077    -3.0293     0.1877 C.3     
  14 C14            0.2902    -4.5561     0.1337 C.3     
  15 C15           -2.0788    -7.6486    -3.1069 C.3     
  16 C16           -0.7919    -6.8647    -3.1310 C.2     
  17 C17           -0.5015    -6.0337    -2.1357 C.2     
  18 C18           -1.4362    -5.8789    -1.0102 C.2     
  19 C19           -1.0993    -5.1311     0.0351 C.2     
  20 H20           -0.0260     1.6582     0.3505 H       
  21 H21            4.4524    -2.2683     0.4518 H       
  22 H22            7.3807    -0.0907     1.2134 H       
  23 H23            6.8626    -1.7910     1.1189 H       
  24 H24            2.3276    -3.0610     0.3032 H       
  25 H25            8.4114    -1.2283    -0.7340 H       
  26 H26            6.7928    -1.6323    -1.3546 H       
  27 H27            7.3109     0.0680    -1.2602 H       
  28 H28           -0.3731    -2.7274     1.0593 H       
  29 H29           -0.2753    -2.6593    -0.7167 H       
  30 H30            0.8710    -4.8579    -0.7379 H       
  31 H31            0.7733    -4.9261     1.0380 H       
  32 H32           -2.1019    -8.2818    -2.2200 H       
  33 H33           -2.9234    -6.9600    -3.0839 H       
  34 H34           -2.1417    -8.2711    -3.9994 H       
  35 H35           -0.1058    -6.9783    -3.9573 H       
  36 H36            0.4207    -5.4719    -2.1530 H       
  37 H37           -2.3962    -6.3731    -1.0337 H       
  38 H38           -1.8212    -4.9354     0.8142 H       
@<TRIPOS>BOND
   1    1    2 ar
   2    1    6 ar
   3    1   20 1
   4    2    3 ar
   5    3    4 ar
   6    3   11 1
   7    4    5 ar
   8    4    7 1
   9    5    6 ar
  10    5    9 1
  11    7    8 2
  12    7   21 1
  13    8    9 1
  14    8   10 1
  15   10   12 1
  16   10   22 1
  17   10   23 1
  18   11   13 1
  19   11   24 1
  20   12   25 1
  21   12   26 1
  22   12   27 1
  23   13   14 1
  24   13   28 1
  25   13   29 1
  26   14   19 1
  27   14   30 1
  28   14   31 1
  29   15   16 1
  30   15   32 1
  31   15   33 1
  32   15   34 1
  33   16   17 2
  34   16   35 1
  35   17   18 1
  36   17   36 1
  37   18   19 2
  38   18   37 1
  39   19   38 1

#	End of record

