#	Name: ASD02039430
#	Creating user name:	WinNT
#	Creation time:	15. 06. 2019 20:18

#	Modifying user name:	WinNT
#	Modification time:	15. 06. 2019 20:18

#	Program:	/corina/corina34_cracker 3.40 0067  02.08.2006

@<TRIPOS>MOLECULE
ASD02039430
  58   62    0    0    0
SMALL
NO_CHARGES


@<TRIPOS>ATOM
   1 C1             0.1378     1.8105    -0.0343 C.ar    
   2 C2             0.5797     0.5039    -0.1385 C.ar    
   3 C3             1.1332     2.9420    -0.0256 C.3     
   4 N4             1.4680     3.3084    -1.4040 N.am    
   5 C5             0.8313     4.3348    -2.0020 C.2     
   6 C6            -0.2770     5.0169    -1.3114 C.2     
   7 C7            -1.0689     5.9986    -1.8315 C.2     
   8 N8            -0.7002     4.7791    -0.0436 N.2     
   9 C9            -1.6992     5.5702     0.2221 C.2     
  10 N10           -1.9544     6.3414    -0.8667 N.pl3   
  11 O11            1.1716     4.6979    -3.1117 O.2     
  12 C12           -3.0000     7.3617    -0.9767 C.3     
  13 C13            2.4948     2.5592    -2.1323 C.3     
  14 C14           -0.3270    -0.5402    -0.1481 C.ar    
  15 C15           -2.1331     1.0351     0.0422 C.ar    
  16 C16           -1.2126     2.0812     0.0561 C.ar    
  17 C17           -3.5851     1.3198     0.1385 C.ar    
  18 N18           -4.3464     0.5662     0.9340 N.ar    
  19 C19           -1.6819    -0.2827    -0.0529 C.ar    
  20 C20           -4.1194     2.3642    -0.5939 C.ar    
  21 C21           -5.4970     2.6202    -0.4904 C.ar    
  22 C22           -6.2740     1.7922     0.3627 C.ar    
  23 C23           -5.6355     0.7590     1.0695 C.ar    
  24 C24           -6.1175     3.6599    -1.1988 C.ar    
  25 C25           -7.6518     2.0300     0.4812 C.ar    
  26 C26            1.8987     1.9993    -3.4274 C.3     
  27 C27            2.9977     1.2857    -4.2191 C.3     
  28 O28            4.0634     2.2005    -4.4829 O.3     
  29 C29            4.6902     2.7204    -3.3086 C.3     
  30 C30            3.6592     3.4916    -2.4804 C.3     
  31 C31           -8.2210     3.0484    -0.2221 C.ar    
  32 C32           -7.4577     3.8607    -1.0581 C.ar    
  33 F33           -2.5676    -1.3028    -0.0628 F       
  34 H34            1.6373     0.2983    -0.2130 H       
  35 H35            0.7004     3.8027     0.4843 H       
  36 H36            2.0368     2.6270     0.4963 H       
  37 H37           -1.0019     6.4214    -2.8230 H       
  38 H38           -2.2398     5.6056     1.1564 H       
  39 H39           -2.6034     8.3246    -0.6546 H       
  40 H40           -3.3303     7.4331    -2.0130 H       
  41 H41           -3.8441     7.0866    -0.3445 H       
  42 H42            2.8559     1.7386    -1.5124 H       
  43 H43            0.0238    -1.5583    -0.2304 H       
  44 H44           -1.5557     3.1026     0.1299 H       
  45 H45           -3.4918     2.9697    -1.2309 H       
  46 H46           -6.2098     0.1188     1.7227 H       
  47 H47           -5.5373     4.2964    -1.8504 H       
  48 H48           -8.2571     1.4094     1.1253 H       
  49 H49            1.1051     1.2918    -3.1871 H       
  50 H50            1.4918     2.8158    -4.0239 H       
  51 H51            3.3762     0.4445    -3.6384 H       
  52 H52            2.5889     0.9222    -5.1619 H       
  53 H53            5.0909     1.8980    -2.7160 H       
  54 H54            5.5007     3.3904    -3.5955 H       
  55 H55            3.2878     4.3383    -3.0578 H       
  56 H56            4.1246     3.8514    -1.5628 H       
  57 H57           -9.2817     3.2297    -0.1295 H       
  58 H58           -7.9357     4.6610    -1.6034 H       
@<TRIPOS>BOND
   1    1    2 ar
   2    1    3 1
   3    1   16 ar
   4    2   14 ar
   5    2   34 1
   6    3    4 1
   7    3   35 1
   8    3   36 1
   9    4    5 am
  10    4   13 1
  11    5    6 1
  12    5   11 2
  13    6    7 2
  14    6    8 1
  15    7   10 1
  16    7   37 1
  17    8    9 2
  18    9   10 1
  19    9   38 1
  20   10   12 1
  21   12   39 1
  22   12   40 1
  23   12   41 1
  24   13   26 1
  25   13   30 1
  26   13   42 1
  27   14   19 ar
  28   14   43 1
  29   15   16 ar
  30   15   17 1
  31   15   19 ar
  32   16   44 1
  33   17   20 ar
  34   17   18 ar
  35   18   23 ar
  36   19   33 1
  37   20   21 ar
  38   20   45 1
  39   21   22 ar
  40   21   24 ar
  41   22   23 ar
  42   22   25 ar
  43   23   46 1
  44   24   32 ar
  45   24   47 1
  46   25   31 ar
  47   25   48 1
  48   26   27 1
  49   26   49 1
  50   26   50 1
  51   27   28 1
  52   27   51 1
  53   27   52 1
  54   28   29 1
  55   29   30 1
  56   29   53 1
  57   29   54 1
  58   30   55 1
  59   30   56 1
  60   31   32 ar
  61   31   57 1
  62   32   58 1

#	End of record

