#	Name: ASD00170324
#	Creating user name:	WinNT
#	Creation time:	15. 06. 2019 18:31

#	Modifying user name:	WinNT
#	Modification time:	15. 06. 2019 18:31

#	Program:	/corina/corina34_cracker 3.40 0067  02.08.2006

@<TRIPOS>MOLECULE
ASD00170324
  67   69    0    0    0
SMALL
NO_CHARGES


@<TRIPOS>ATOM
   1 C1            -1.0701     2.0036    -0.4439 C.3     
   2 C2            -1.1118     0.6470    -1.1246 C.2     
   3 C3            -0.2237     0.2386    -2.0365 C.2     
   4 C4             0.9526     1.0781    -2.5082 C.3     
   5 C5             0.6931     2.5461    -2.1613 C.3     
   6 N6             0.2215     2.6278    -0.7705 N.am    
   7 C7            -0.5106    -1.1008    -2.5239 C.2     
   8 C8            -1.6192    -1.6614    -1.9482 C.2     
   9 S9            -2.3206    -0.5902    -0.8261 S.3     
  10 C10            0.3041    -1.7818    -3.5296 C.2     
  11 O11            1.2450    -2.4717    -3.1847 O.2     
  12 O12            0.0124    -1.6449    -4.8396 O.3     
  13 C13            0.9494     3.2549     0.1747 C.2     
  14 C14            0.4029     3.4036     1.5713 C.3     
  15 C15            0.4299     2.0462     2.2767 C.3     
  16 O16            2.0441     3.6996    -0.0986 O.2     
  17 C17           -0.2478     2.1634     3.6176 C.ar    
  18 C18           -1.6218     2.0423     3.7103 C.ar    
  19 C19           -2.2439     2.1496     4.9399 C.ar    
  20 C20           -1.4912     2.3784     6.0780 C.ar    
  21 C21           -0.1162     2.4995     5.9846 C.ar    
  22 C22            0.5053     2.3863     4.7552 C.ar    
  23 Cl23          -2.2719     2.5140     7.6226 Cl      
  24 N24            1.2275     4.3612     2.3204 N.3     
  25 C25            0.3880     5.3171     3.0548 C.3     
  26 C26            1.2597     6.1880     3.9224 C.2     
  27 O27            2.4574     6.0287     3.9283 O.2     
  28 O28            0.7056     7.1407     4.6886 O.3     
  29 C29            1.6060     7.9418     5.4985 C.3     
  30 C30            2.5978     8.6705     4.5896 C.3     
  31 C31            0.7981     8.9667     6.2971 C.3     
  32 C32            2.3707     7.0322     6.4623 C.3     
  33 N33           -2.1022    -2.9226    -2.2380 N.pl3   
  34 C34            0.8502    -2.3382    -5.7667 C.3     
  35 C35            0.3682    -2.0648    -7.1928 C.3     
  36 H36           -1.8852     2.6268    -0.8118 H       
  37 H37           -1.1577     1.8785     0.6353 H       
  38 H38            1.8626     0.7418    -2.0114 H       
  39 H39            1.0655     0.9732    -3.5873 H       
  40 H40            1.6163     3.1156    -2.2682 H       
  41 H41           -0.0674     2.9505    -2.8294 H       
  42 H42           -0.6234     3.7677     1.5230 H       
  43 H43           -0.0945     1.3098     1.6677 H       
  44 H44            1.4636     1.7308     2.4183 H       
  45 H45           -2.2092     1.8641     2.8218 H       
  46 H46           -3.3173     2.0554     5.0121 H       
  47 H47            0.4719     2.6781     6.8727 H       
  48 H48            1.5791     2.4764     4.6828 H       
  49 H49            1.8609     3.8830     2.9435 H       
  50 H50           -0.1578     5.9404     2.3465 H       
  51 H51           -0.3196     4.7733     3.6806 H       
  52 H52            2.0530     9.3184     3.9030 H       
  53 H53            3.2737     9.2718     5.1976 H       
  54 H54            3.1733     7.9403     4.0206 H       
  55 H55            0.0915     8.4476     6.9447 H       
  56 H56            1.4740     9.5680     6.9052 H       
  57 H57            0.2533     9.6147     5.6106 H       
  58 H58            2.9462     6.3020     5.8933 H       
  59 H59            3.0466     7.6336     7.0703 H       
  60 H60            1.6641     6.5131     7.1098 H       
  61 H61           -1.6479    -3.4777    -2.8910 H       
  62 H62           -2.8956    -3.2533    -1.7885 H       
  63 H63            1.8777    -1.9913    -5.6576 H       
  64 H64            0.8050    -3.4088    -5.5669 H       
  65 H65            1.0072    -2.5937    -7.9000 H       
  66 H66           -0.6593    -2.4117    -7.3019 H       
  67 H67            0.4134    -0.9942    -7.3926 H       
@<TRIPOS>BOND
   1    1    2 1
   2    1    6 1
   3    1   36 1
   4    1   37 1
   5    2    3 2
   6    2    9 1
   7    3    4 1
   8    3    7 1
   9    4    5 1
  10    4   38 1
  11    4   39 1
  12    5    6 1
  13    5   40 1
  14    5   41 1
  15    6   13 am
  16    7    8 2
  17    7   10 1
  18    8    9 1
  19    8   33 1
  20   10   11 2
  21   10   12 1
  22   12   34 1
  23   13   14 1
  24   13   16 2
  25   14   15 1
  26   14   24 1
  27   14   42 1
  28   15   17 1
  29   15   43 1
  30   15   44 1
  31   17   18 ar
  32   17   22 ar
  33   18   19 ar
  34   18   45 1
  35   19   20 ar
  36   19   46 1
  37   20   21 ar
  38   20   23 1
  39   21   22 ar
  40   21   47 1
  41   22   48 1
  42   24   25 1
  43   24   49 1
  44   25   26 1
  45   25   50 1
  46   25   51 1
  47   26   27 2
  48   26   28 1
  49   28   29 1
  50   29   30 1
  51   29   32 1
  52   29   31 1
  53   30   52 1
  54   30   53 1
  55   30   54 1
  56   31   55 1
  57   31   56 1
  58   31   57 1
  59   32   58 1
  60   32   59 1
  61   32   60 1
  62   33   61 1
  63   33   62 1
  64   34   35 1
  65   34   63 1
  66   34   64 1
  67   35   65 1
  68   35   66 1
  69   35   67 1

#	End of record

