#	Name: ASD01152489
#	Creating user name:	WinNT
#	Creation time:	15. 06. 2019 19:05

#	Modifying user name:	WinNT
#	Modification time:	15. 06. 2019 19:05

#	Program:	/corina/corina34_cracker 3.40 0067  02.08.2006

@<TRIPOS>MOLECULE
ASD01152489
  52   55    0    0    0
SMALL
NO_CHARGES


@<TRIPOS>ATOM
   1 C1             0.1107     1.1569    -0.6966 C.2     
   2 N2             0.0185    -0.1438    -0.6179 N.2     
   3 N3            -1.1208    -0.7663    -0.1082 N.am    
   4 C4            -2.2617    -0.0995     0.1332 C.2     
   5 C5            -2.3931     1.3532    -0.2596 C.3     
   6 C6            -1.0091     1.9734    -0.2041 C.2     
   7 C7            -2.9569     1.4574    -1.6781 C.3     
   8 O8            -0.8366     3.0970     0.2213 O.2     
   9 C9            -1.0736    -2.1392     0.1619 C.ar    
  10 O10           -3.1905    -0.6664     0.6685 O.2     
  11 C11           -3.2001     2.9055    -2.0168 C.ar    
  12 C12           -0.0101    -2.6697     0.8787 C.ar    
  13 C13           -2.0943    -2.9704    -0.2825 C.ar    
  14 C14           -2.0494    -4.3253    -0.0164 C.ar    
  15 C15           -0.9885    -4.8585     0.6937 C.ar    
  16 C16            0.0336    -4.0301     1.1451 C.ar    
  17 C17           -2.1993     3.6533    -2.6077 C.ar    
  18 C18           -4.4260     3.4823    -1.7412 C.ar    
  19 C19           -4.6535     4.8094    -2.0521 C.ar    
  20 C20           -3.6523     5.5664    -2.6424 C.ar    
  21 C21           -2.4207     4.9860    -2.9214 C.ar    
  22 O22           -3.8937     6.8700    -2.9504 O.3     
  23 C23           -2.7501     7.6956    -3.1965 C.3     
  24 C24           -1.8005     6.9353    -4.1321 C.3     
  25 O25           -1.4219     5.7125    -3.4934 O.3     
  26 F26           -0.9475    -6.1838     0.9529 F       
  27 N27            1.1054    -4.5690     1.8677 N.am    
  28 C28            1.7698    -3.8055     2.7576 C.2     
  29 O29            1.5003    -2.6279     2.8670 O.2     
  30 C30            2.8477    -4.4147     3.6167 C.3     
  31 O31            1.2204     1.7434    -1.2173 O.3     
  32 C32            2.2629     0.8753    -1.6664 C.3     
  33 H33           -3.0535     1.8663     0.4395 H       
  34 H34           -2.2432     1.0339    -2.3847 H       
  35 H35           -3.8963     0.9077    -1.7370 H       
  36 H36            0.7823    -2.0243     1.2281 H       
  37 H37           -2.9241    -2.5568    -0.8365 H       
  38 H38           -2.8440    -4.9694    -0.3629 H       
  39 H39           -1.2437     3.1994    -2.8251 H       
  40 H40           -5.2073     2.8945    -1.2824 H       
  41 H41           -5.6120     5.2576    -1.8355 H       
  42 H42           -3.0638     8.6266    -3.6686 H       
  43 H43           -2.2439     7.9122    -2.2558 H       
  44 H44           -2.3085     6.7137    -5.0707 H       
  45 H45           -0.9144     7.5395    -4.3267 H       
  46 H46            1.3695    -5.4918     1.7277 H       
  47 H47            3.8076    -4.3348     3.1065 H       
  48 H48            2.8967    -3.8851     4.5681 H       
  49 H49            2.6183    -5.4650     3.7969 H       
  50 H50            1.8800     0.2237    -2.4519 H       
  51 H51            3.0879     1.4704    -2.0580 H       
  52 H52            2.6160     0.2695    -0.8318 H       
@<TRIPOS>BOND
   1    1    2 2
   2    1   31 1
   3    1    6 1
   4    2    3 1
   5    3    4 am
   6    3    9 1
   7    4    5 1
   8    4   10 2
   9    5    6 1
  10    5    7 1
  11    5   33 1
  12    6    8 2
  13    7   11 1
  14    7   34 1
  15    7   35 1
  16    9   12 ar
  17    9   13 ar
  18   11   17 ar
  19   11   18 ar
  20   12   16 ar
  21   12   36 1
  22   13   14 ar
  23   13   37 1
  24   14   15 ar
  25   14   38 1
  26   15   16 ar
  27   15   26 1
  28   16   27 1
  29   17   21 ar
  30   17   39 1
  31   18   19 ar
  32   18   40 1
  33   19   20 ar
  34   19   41 1
  35   20   21 ar
  36   20   22 1
  37   21   25 1
  38   22   23 1
  39   23   24 1
  40   23   42 1
  41   23   43 1
  42   24   25 1
  43   24   44 1
  44   24   45 1
  45   27   28 am
  46   27   46 1
  47   28   29 2
  48   28   30 1
  49   30   47 1
  50   30   48 1
  51   30   49 1
  52   31   32 1
  53   32   50 1
  54   32   51 1
  55   32   52 1

#	End of record

