#	Name: ASD01816001
#	Creating user name:	WinNT
#	Creation time:	15. 06. 2019 19:34

#	Modifying user name:	WinNT
#	Modification time:	15. 06. 2019 19:34

#	Program:	/corina/corina34_cracker 3.40 0067  02.08.2006

@<TRIPOS>MOLECULE
ASD01816001
  41   45    0    0    0
SMALL
NO_CHARGES


@<TRIPOS>ATOM
   1 C1             0.3078     1.3828    -1.5319 C.ar    
   2 C2             0.3229    -0.0025    -1.5209 C.ar    
   3 C3             1.4123    -0.6898    -1.0270 C.ar    
   4 C4             2.5095     0.0065    -0.5331 C.ar    
   5 C5             2.4913     1.4111    -0.5456 C.ar    
   6 C6             1.3870     2.0927    -1.0467 C.ar    
   7 N7             3.6065    -0.6779    -0.0347 N.pl3   
   8 C8             4.6941    -0.0578     0.4555 C.2     
   9 C9             4.7885     1.3112     0.4936 C.2     
  10 C10            3.6659     2.1304    -0.0169 C.2     
  11 C11            5.7891     2.2745     0.9429 C.2     
  12 N12            5.2687     3.4973     0.7029 N.am    
  13 N13            3.9999     3.3806     0.1296 N.2     
  14 C14            5.9095     4.7098     0.9881 C.ar    
  15 O15            6.8771     2.0249     1.4361 O.2     
  16 C16            3.5809    -2.0774    -0.0415 C.ar    
  17 C17            6.8035     5.2556     0.0767 C.ar    
  18 C18            7.4339     6.4513     0.3607 C.ar    
  19 C19            7.1766     7.1058     1.5515 C.ar    
  20 C20            6.2872     6.5665     2.4624 C.ar    
  21 C21            5.6474     5.3727     2.1822 C.ar    
  22 F22            4.7783     4.8456     3.0722 F       
  23 C23            4.0664    -2.7765    -1.1391 C.ar    
  24 C24            3.0753    -2.7690     1.0517 C.ar    
  25 C25            3.0515    -4.1497     1.0431 C.ar    
  26 C26            3.5313    -4.8447    -0.0545 C.ar    
  27 C27            4.0407    -4.1572    -1.1434 C.ar    
  28 F28            3.5075    -6.1955    -0.0607 F       
  29 H29           -0.5495     1.9088    -1.9256 H       
  30 H30           -0.5266    -0.5497    -1.9024 H       
  31 H31            1.4125    -1.7698    -1.0236 H       
  32 H32            1.3742     3.1726    -1.0554 H       
  33 H33            5.5146    -0.6523     0.8294 H       
  34 H34            7.0061     4.7454    -0.8534 H       
  35 H35            8.1293     6.8757    -0.3484 H       
  36 H36            7.6719     8.0402     1.7706 H       
  37 H37            6.0884     7.0801     3.3915 H       
  38 H38            4.4635    -2.2407    -1.9886 H       
  39 H39            2.7014    -2.2275     1.9080 H       
  40 H40            2.6588    -4.6879     1.8931 H       
  41 H41            4.4140    -4.7011    -1.9985 H       
@<TRIPOS>BOND
   1    1    2 ar
   2    1    6 ar
   3    1   29 1
   4    2    3 ar
   5    2   30 1
   6    3    4 ar
   7    3   31 1
   8    4    5 ar
   9    4    7 1
  10    5    6 ar
  11    5   10 1
  12    6   32 1
  13    7    8 1
  14    7   16 1
  15    8    9 2
  16    8   33 1
  17    9   10 1
  18    9   11 1
  19   10   13 2
  20   11   12 am
  21   11   15 2
  22   12   13 1
  23   12   14 1
  24   14   17 ar
  25   14   21 ar
  26   16   23 ar
  27   16   24 ar
  28   17   18 ar
  29   17   34 1
  30   18   19 ar
  31   18   35 1
  32   19   20 ar
  33   19   36 1
  34   20   21 ar
  35   20   37 1
  36   21   22 1
  37   23   27 ar
  38   23   38 1
  39   24   25 ar
  40   24   39 1
  41   25   26 ar
  42   25   40 1
  43   26   27 ar
  44   26   28 1
  45   27   41 1

#	End of record

