#	Name: ASD01948207
#	Creating user name:	WinNT
#	Creation time:	15. 06. 2019 20:13

#	Modifying user name:	WinNT
#	Modification time:	15. 06. 2019 20:13

#	Program:	/corina/corina34_cracker 3.40 0067  02.08.2006

@<TRIPOS>MOLECULE
ASD01948207
  45   47    0    0    0
SMALL
NO_CHARGES


@<TRIPOS>ATOM
   1 C1             0.1164     1.1117    -0.3550 C.ar    
   2 C2             0.1669    -0.2380    -0.1114 C.ar    
   3 C3             1.3532    -0.8409     0.3219 C.ar    
   4 C4             2.4945    -0.0649     0.5082 C.ar    
   5 C5             2.4514     1.3014     0.2638 C.ar    
   6 C6             1.2578     1.8979    -0.1705 C.ar    
   7 C7            -0.8593    -1.3399    -0.2106 C.3     
   8 N8            -0.1772    -2.5754     0.1894 N.am    
   9 C9             1.0989    -2.2868     0.4964 C.2     
  10 C10            2.7681     2.7788     2.6103 C.ar    
  11 C11            3.7292     2.8476     1.6115 C.ar    
  12 N12            3.5887     2.0770     0.4495 N.pl3   
  13 C13            2.9058     3.5386     3.7557 C.ar    
  14 C14            4.0062     4.3723     3.9087 C.ar    
  15 C15            4.9697     4.4419     2.9097 C.ar    
  16 C16            4.8320     3.6820     1.7638 C.ar    
  17 F17            5.7682     3.7489     0.7920 F       
  18 O18            1.9254    -3.0980     0.8647 O.2     
  19 C19            1.2075     3.3497    -0.4319 C.2     
  20 O20            2.2241     4.0139    -0.3715 O.2     
  21 N21            0.0347     3.9392    -0.7376 N.am    
  22 O22           -0.0135     5.3320    -0.9884 O.3     
  23 C23           -1.3194     5.8216    -1.2997 C.3     
  24 C24           -1.2523     7.3295    -1.5505 C.3     
  25 O25           -0.4654     7.5839    -2.7159 O.3     
  26 S26            4.1807     5.3414     5.3699 S.3     
  27 C27            5.7368     6.2297     5.0869 C.3     
  28 H28           -0.8033     1.5656    -0.6934 H       
  29 H29            3.4123    -0.5254     0.8428 H       
  30 H30           -1.6923    -1.1373     0.4626 H       
  31 H31           -1.2184    -1.4257    -1.2362 H       
  32 H32           -0.5812    -3.4565     0.2266 H       
  33 H33            1.9098     2.1345     2.4900 H       
  34 H34            4.2856     2.0852    -0.2252 H       
  35 H35            2.1575     3.4845     4.5325 H       
  36 H36            5.8249     5.0906     3.0282 H       
  37 H37           -0.7764     3.4094    -0.7857 H       
  38 H38           -1.6917     5.3208    -2.1934 H       
  39 H39           -1.9910     5.6218    -0.4647 H       
  40 H40           -2.2596     7.7180    -1.7003 H       
  41 H41           -0.7975     7.8210    -0.6906 H       
  42 H42           -0.3798     8.5217    -2.9356 H       
  43 H43            6.5473     5.5118     4.9611 H       
  44 H44            5.6488     6.8395     4.1878 H       
  45 H45            5.9494     6.8715     5.9419 H       
@<TRIPOS>BOND
   1    1    2 ar
   2    1    6 ar
   3    1   28 1
   4    2    3 ar
   5    2    7 1
   6    3    4 ar
   7    3    9 1
   8    4    5 ar
   9    4   29 1
  10    5    6 ar
  11    5   12 1
  12    6   19 1
  13    7    8 1
  14    7   30 1
  15    7   31 1
  16    8    9 am
  17    8   32 1
  18    9   18 2
  19   10   11 ar
  20   10   13 ar
  21   10   33 1
  22   11   12 1
  23   11   16 ar
  24   12   34 1
  25   13   14 ar
  26   13   35 1
  27   14   15 ar
  28   14   26 1
  29   15   16 ar
  30   15   36 1
  31   16   17 1
  32   19   20 2
  33   19   21 am
  34   21   22 1
  35   21   37 1
  36   22   23 1
  37   23   24 1
  38   23   38 1
  39   23   39 1
  40   24   25 1
  41   24   40 1
  42   24   41 1
  43   25   42 1
  44   26   27 1
  45   27   43 1
  46   27   44 1
  47   27   45 1

#	End of record

