#	Name: ASD01100018
#	Creating user name:	WinNT
#	Creation time:	15. 06. 2019 18:58

#	Modifying user name:	WinNT
#	Modification time:	15. 06. 2019 18:58

#	Program:	/corina/corina34_cracker 3.40 0067  02.08.2006

@<TRIPOS>MOLECULE
ASD01100018
  37   38    0    0    0
SMALL
NO_CHARGES


@<TRIPOS>ATOM
   1 C1             1.4521    -0.2540    -1.9336 C.ar    
   2 C2             1.9350    -1.5388    -1.7600 C.ar    
   3 C3             3.1075    -1.7472    -1.0558 C.ar    
   4 C4             3.7957    -0.6719    -0.5261 C.ar    
   5 C5             3.3126     0.6117    -0.6999 C.ar    
   6 C6             2.1411     0.8205    -1.4035 C.ar    
   7 C7             4.0631     1.7836    -0.1217 C.3     
   8 C8             3.1640     2.5267     0.8685 C.3     
   9 C9             2.8484     1.6137     2.0550 C.3     
  10 C10            3.8830     3.7816     1.3677 C.3     
  11 Cl11           1.0699    -2.8889    -2.4251 Cl      
  12 C12            4.4674     2.7185    -1.2323 C.2     
  13 N13            5.2649     3.7727    -0.9690 N.am    
  14 O14            4.0753     2.5224    -2.3630 O.2     
  15 C15            5.5569     4.6951    -1.9746 C.ar    
  16 C16            6.7839     5.3560    -2.0043 C.ar    
  17 C17            7.0336     6.2606    -3.0154 C.ar    
  18 N18            6.1290     6.5028    -3.9452 N.ar    
  19 C19            4.9563     5.8977    -3.9515 C.ar    
  20 C20            4.6313     4.9752    -2.9786 C.ar    
  21 H21            0.5392    -0.0903    -2.4870 H       
  22 H22            3.4848    -2.7499    -0.9196 H       
  23 H23            4.7107    -0.8345     0.0240 H       
  24 H24            1.7642     1.8235    -1.5389 H       
  25 H25            4.9540     1.4257     0.3944 H       
  26 H26            2.2361     2.8124     0.3730 H       
  27 H27            3.7762     1.3280     2.5505 H       
  28 H28            2.2078     2.1431     2.7604 H       
  29 H29            2.3361     0.7197     1.6994 H       
  30 H30            4.1390     4.4155     0.5188 H       
  31 H31            3.2290     4.3294     2.0461 H       
  32 H32            4.7932     3.4938     1.8938 H       
  33 H33            5.6359     3.8902    -0.0805 H       
  34 H34            7.5284     5.1627    -1.2462 H       
  35 H35            7.9814     6.7776    -3.0461 H       
  36 H36            4.2435     6.1245    -4.7305 H       
  37 H37            3.6698     4.4835    -2.9895 H       
@<TRIPOS>BOND
   1    1    2 ar
   2    1    6 ar
   3    1   21 1
   4    2    3 ar
   5    2   11 1
   6    3    4 ar
   7    3   22 1
   8    4    5 ar
   9    4   23 1
  10    5    6 ar
  11    5    7 1
  12    6   24 1
  13    7    8 1
  14    7   12 1
  15    7   25 1
  16    8    9 1
  17    8   10 1
  18    8   26 1
  19    9   27 1
  20    9   28 1
  21    9   29 1
  22   10   30 1
  23   10   31 1
  24   10   32 1
  25   12   13 am
  26   12   14 2
  27   13   15 1
  28   13   33 1
  29   15   16 ar
  30   15   20 ar
  31   16   17 ar
  32   16   34 1
  33   17   18 ar
  34   17   35 1
  35   18   19 ar
  36   19   20 ar
  37   19   36 1
  38   20   37 1

#	End of record

