#	Name: ASD01916700
#	Creating user name:	WinNT
#	Creation time:	15. 06. 2019 20:07

#	Modifying user name:	WinNT
#	Modification time:	15. 06. 2019 20:07

#	Program:	/corina/corina34_cracker 3.40 0067  02.08.2006

@<TRIPOS>MOLECULE
ASD01916700
  49   52    0    0    0
SMALL
NO_CHARGES


@<TRIPOS>ATOM
   1 C1            -0.0241     1.4411    -0.2117 C.ar    
   2 C2            -0.0186     0.0947    -0.6437 C.ar    
   3 C3            -1.2197    -0.5947    -0.8053 C.ar    
   4 C4            -2.4031     0.0405    -0.5571 C.ar    
   5 C5            -2.4216     1.3721    -0.1430 C.ar    
   6 C6            -1.2426     2.0741     0.0308 C.ar    
   7 N7             1.1586     2.0715    -0.0366 N.2     
   8 C8             2.3119     1.4975    -0.2754 C.2     
   9 N9             2.3973     0.2461    -0.7929 N.am    
  10 C10            1.2809    -0.5222    -0.9207 C.2     
  11 O11           -3.6094     1.9860     0.0914 O.3     
  12 O12            1.3602    -1.6901    -1.2557 O.2     
  13 C13           -4.7848     1.1773     0.0108 C.3     
  14 C14            3.5382     2.2850     0.1047 C.3     
  15 C15            4.7814     1.8146    -0.6174 C.3     
  16 C16            4.8762     0.3035    -0.6695 C.3     
  17 C17            3.6464    -0.3281    -1.2814 C.3     
  18 C18            6.1002    -0.0883    -1.4998 C.3     
  19 C19            5.0530    -0.2317     0.7529 C.3     
  20 C20           -5.8746     1.7896     0.8524 C.ar    
  21 N21           -6.3701     2.9659     0.5218 N.ar    
  22 C22           -7.3243     3.5400     1.2284 C.ar    
  23 C23           -7.8418     2.9221     2.3508 C.ar    
  24 C24           -7.3456     1.6838     2.7299 C.ar    
  25 C25           -6.3471     1.1090     1.9589 C.ar    
  26 C26           -5.2492     1.0962    -1.4448 C.3     
  27 H27           -1.2143    -1.6261    -1.1255 H       
  28 H28           -3.3334    -0.4934    -0.6830 H       
  29 H29           -1.2655     3.1048     0.3524 H       
  30 H30           -4.5622     0.1752     0.3775 H       
  31 H31            3.3695     3.3354    -0.1329 H       
  32 H32            3.6981     2.1907     1.1787 H       
  33 H33            4.7675     2.2034    -1.6356 H       
  34 H34            5.6588     2.2064    -0.1029 H       
  35 H35            3.6525    -1.3947    -1.0564 H       
  36 H36            3.6899    -0.2015    -2.3632 H       
  37 H37            6.9986     0.3214    -1.0382 H       
  38 H38            6.1771    -1.1747    -1.5433 H       
  39 H39            5.9968     0.3093    -2.5094 H       
  40 H40            4.1976     0.0629     1.3609 H       
  41 H41            5.1222    -1.3192     0.7259 H       
  42 H42            5.9650     0.1798     1.1852 H       
  43 H43           -7.7053     4.5044     0.9266 H       
  44 H44           -8.6226     3.3976     2.9258 H       
  45 H45           -7.7307     1.1776     3.6026 H       
  46 H46           -5.9376     0.1456     2.2243 H       
  47 H47           -4.4609     0.6533    -2.0535 H       
  48 H48           -6.1457     0.4793    -1.5063 H       
  49 H49           -5.4718     2.0982    -1.8115 H       
@<TRIPOS>BOND
   1    1    2 ar
   2    1    7 1
   3    1    6 ar
   4    2    3 ar
   5    2   10 1
   6    3    4 ar
   7    3   27 1
   8    4    5 ar
   9    4   28 1
  10    5    6 ar
  11    5   11 1
  12    6   29 1
  13    7    8 2
  14    8    9 1
  15    8   14 1
  16    9   10 am
  17    9   17 1
  18   10   12 2
  19   11   13 1
  20   13   20 1
  21   13   26 1
  22   13   30 1
  23   14   15 1
  24   14   31 1
  25   14   32 1
  26   15   16 1
  27   15   33 1
  28   15   34 1
  29   16   17 1
  30   16   18 1
  31   16   19 1
  32   17   35 1
  33   17   36 1
  34   18   37 1
  35   18   38 1
  36   18   39 1
  37   19   40 1
  38   19   41 1
  39   19   42 1
  40   20   21 ar
  41   20   25 ar
  42   21   22 ar
  43   22   23 ar
  44   22   43 1
  45   23   24 ar
  46   23   44 1
  47   24   25 ar
  48   24   45 1
  49   25   46 1
  50   26   47 1
  51   26   48 1
  52   26   49 1

#	End of record

