#	Name: ASD01913711
#	Creating user name:	WinNT
#	Creation time:	15. 06. 2019 20:02

#	Modifying user name:	WinNT
#	Modification time:	15. 06. 2019 20:02

#	Program:	/corina/corina34_cracker 3.40 0067  02.08.2006

@<TRIPOS>MOLECULE
ASD01913711
  54   56    0    0    0
SMALL
NO_CHARGES


@<TRIPOS>ATOM
   1 O1             0.2284     1.3399    -0.0741 O.3     
   2 C2             0.1244    -0.0106    -0.0394 C.ar    
   3 N3             1.2228    -0.7490    -0.0024 N.ar    
   4 C4             1.1739    -2.0642     0.0322 C.ar    
   5 C5            -0.0522    -2.7302     0.0305 C.ar    
   6 C6            -1.2352    -1.9772    -0.0083 C.ar    
   7 C7            -1.1356    -0.6016    -0.0375 C.ar    
   8 C8            -0.1037    -4.2049     0.0683 C.2     
   9 N9             1.0347    -4.9214    -0.0159 N.am    
  10 O10           -1.1732    -4.7733     0.1755 O.2     
  11 C11            0.9835    -6.3850     0.0217 C.3     
  12 C12            1.5476     1.8893    -0.0683 C.3     
  13 C13            1.4655     3.3935    -0.1100 C.ar    
  14 C14            1.4092     4.1152     1.0675 C.ar    
  15 C15            1.3333     5.4954     1.0307 C.ar    
  16 C16            1.3138     6.1547    -0.1834 C.ar    
  17 C17            1.3707     5.4327    -1.3638 C.ar    
  18 C18            1.4522     4.0512    -1.3256 C.ar    
  19 C19            2.2136    -6.9567    -0.6861 C.3     
  20 F20            1.3516     6.0762    -2.5515 F       
  21 C21           -2.5816    -2.6541    -0.0116 C.3     
  22 C22            0.9668    -6.8576     1.4768 C.3     
  23 C23            2.1602    -8.4853    -0.6469 C.3     
  24 C24            3.3903    -9.0569    -1.3546 C.3     
  25 C25            3.4070    -8.5844    -2.8098 C.3     
  26 C26            3.4604    -7.0558    -2.8490 C.3     
  27 C27            2.2303    -6.4842    -2.1412 C.3     
  28 H28            2.0915    -2.6330     0.0618 H       
  29 H29           -2.0255     0.0098    -0.0673 H       
  30 H30            1.8879    -4.4680    -0.1015 H       
  31 H31            0.0810    -6.7301    -0.4828 H       
  32 H32            2.0665     1.5788     0.8386 H       
  33 H33            2.0943     1.5310    -0.9405 H       
  34 H34            1.4240     3.6008     2.0169 H       
  35 H35            1.2890     6.0582     1.9514 H       
  36 H36            1.2539     7.2326    -0.2119 H       
  37 H37            1.4966     3.4871    -2.2455 H       
  38 H38            3.1162    -6.6116    -0.1817 H       
  39 H39           -2.8700    -2.8943     1.0117 H       
  40 H40           -3.3228    -1.9865    -0.4509 H       
  41 H41           -2.5257    -3.5712    -0.5981 H       
  42 H42            0.9288    -7.9465     1.5047 H       
  43 H43            1.8694    -6.5125     1.9812 H       
  44 H44            0.0905    -6.4503     1.9810 H       
  45 H45            2.1483    -8.8219     0.3898 H       
  46 H46            1.2577    -8.8303    -1.1513 H       
  47 H47            4.2928    -8.7118    -0.8502 H       
  48 H48            3.3522   -10.1459    -1.3267 H       
  49 H49            4.2833    -8.9917    -3.3140 H       
  50 H50            2.5045    -8.9295    -3.3142 H       
  51 H51            4.3630    -6.7108    -2.3446 H       
  52 H52            3.4723    -6.7192    -3.8857 H       
  53 H53            1.3278    -6.8292    -2.6457 H       
  54 H54            2.2684    -5.3952    -2.1692 H       
@<TRIPOS>BOND
   1    1    2 1
   2    1   12 1
   3    2    3 ar
   4    2    7 ar
   5    3    4 ar
   6    4    5 ar
   7    4   28 1
   8    5    6 ar
   9    5    8 1
  10    6    7 ar
  11    6   21 1
  12    7   29 1
  13    8    9 am
  14    8   10 2
  15    9   11 1
  16    9   30 1
  17   11   19 1
  18   11   22 1
  19   11   31 1
  20   12   13 1
  21   12   32 1
  22   12   33 1
  23   13   14 ar
  24   13   18 ar
  25   14   15 ar
  26   14   34 1
  27   15   16 ar
  28   15   35 1
  29   16   17 ar
  30   16   36 1
  31   17   18 ar
  32   17   20 1
  33   18   37 1
  34   19   23 1
  35   19   27 1
  36   19   38 1
  37   21   39 1
  38   21   40 1
  39   21   41 1
  40   22   42 1
  41   22   43 1
  42   22   44 1
  43   23   24 1
  44   23   45 1
  45   23   46 1
  46   24   25 1
  47   24   47 1
  48   24   48 1
  49   25   26 1
  50   25   49 1
  51   25   50 1
  52   26   27 1
  53   26   51 1
  54   26   52 1
  55   27   53 1
  56   27   54 1

#	End of record

