#	Name: ASD03930101
#	Creating user name:	WinNT
#	Creation time:	15. 06. 2019 20:47

#	Modifying user name:	WinNT
#	Modification time:	15. 06. 2019 20:47

#	Program:	/corina/corina34_cracker 3.40 0067  02.08.2006

@<TRIPOS>MOLECULE
ASD03930101
  53   56    0    0    0
SMALL
NO_CHARGES


@<TRIPOS>ATOM
   1 C1            -0.0173     1.4248     0.0099 C.3     
   2 O2             0.0021    -0.0041     0.0020 O.3     
   3 C3             0.6057    -0.6070    -1.0555 C.ar    
   4 C4             0.6593    -1.9926    -1.1249 C.ar    
   5 C5             1.2712    -2.6076    -2.1967 C.ar    
   6 C6             1.8359    -1.8362    -3.2118 C.ar    
   7 C7             1.7799    -0.4449    -3.1394 C.ar    
   8 C8             1.1624     0.1639    -2.0672 C.ar    
   9 C9             2.4949    -2.4941    -4.3654 C.ar    
  10 C10            3.0593    -1.7205    -5.3800 C.ar    
  11 C11            3.6711    -2.3306    -6.4519 C.ar    
  12 C12            3.7270    -3.7244    -6.5232 C.ar    
  13 C13            3.1621    -4.4981    -5.5067 C.ar    
  14 C14            2.5553    -3.8862    -4.4330 C.ar    
  15 C15            4.3831    -4.3802    -7.6736 C.2     
  16 C16            4.2130    -4.0325    -8.9741 C.2     
  17 C17            3.3352    -2.9257    -9.4991 C.3     
  18 C18            5.0435    -4.9352    -9.7692 C.ar    
  19 C19            5.6794    -5.7959    -8.8549 C.ar    
  20 N20            5.2647    -5.4331    -7.5900 N.pl3   
  21 C21            5.6921    -6.0776    -6.3458 C.3     
  22 C22            6.9463    -5.3805    -5.8151 C.3     
  23 C23            6.5449    -6.7772    -9.3265 C.ar    
  24 C24            6.7750    -6.9013   -10.6786 C.ar    
  25 C25            6.1479    -6.0511   -11.5864 C.ar    
  26 C26            5.2845    -5.0715   -11.1400 C.ar    
  27 O27            6.3870    -6.1875   -12.9182 O.3     
  28 C28            7.2905    -7.2220   -13.3125 C.3     
  29 H29            1.0053     1.8021     0.0021 H       
  30 H30           -0.5445     1.7859    -0.8732 H       
  31 H31           -0.5275     1.7763     0.9067 H       
  32 H32            0.2217    -2.5895    -0.3383 H       
  33 H33            1.3132    -3.6854    -2.2498 H       
  34 H34            2.2164     0.1553    -3.9240 H       
  35 H35            1.1184     1.2415    -2.0107 H       
  36 H36            3.0160    -0.6428    -5.3247 H       
  37 H37            4.1074    -1.7316    -7.2376 H       
  38 H38            3.2048    -5.5758    -5.5610 H       
  39 H39            2.1184    -4.4843    -3.6469 H       
  40 H40            3.9095    -2.0008    -9.5525 H       
  41 H41            2.9756    -3.1881   -10.4940 H       
  42 H42            2.4856    -2.7877    -8.8303 H       
  43 H43            4.8949    -6.0040    -5.6060 H       
  44 H44            5.9136    -7.1274    -6.5379 H       
  45 H45            7.7435    -5.4541    -6.5548 H       
  46 H46            6.7248    -4.3307    -5.6230 H       
  47 H47            7.2643    -5.8600    -4.8893 H       
  48 H48            7.0371    -7.4419    -8.6320 H       
  49 H49            7.4484    -7.6650   -11.0386 H       
  50 H50            4.7991    -4.4128   -11.8450 H       
  51 H51            7.3918    -7.2216   -14.3978 H       
  52 H52            8.2649    -7.0467   -12.8565 H       
  53 H53            6.9039    -8.1868   -12.9841 H       
@<TRIPOS>BOND
   1    1    2 1
   2    1   29 1
   3    1   30 1
   4    1   31 1
   5    2    3 1
   6    3    4 ar
   7    3    8 ar
   8    4    5 ar
   9    4   32 1
  10    5    6 ar
  11    5   33 1
  12    6    7 ar
  13    6    9 1
  14    7    8 ar
  15    7   34 1
  16    8   35 1
  17    9   10 ar
  18    9   14 ar
  19   10   11 ar
  20   10   36 1
  21   11   12 ar
  22   11   37 1
  23   12   13 ar
  24   12   15 1
  25   13   14 ar
  26   13   38 1
  27   14   39 1
  28   15   16 2
  29   15   20 1
  30   16   17 1
  31   16   18 1
  32   17   40 1
  33   17   41 1
  34   17   42 1
  35   18   19 ar
  36   18   26 ar
  37   19   20 1
  38   19   23 ar
  39   20   21 1
  40   21   22 1
  41   21   43 1
  42   21   44 1
  43   22   45 1
  44   22   46 1
  45   22   47 1
  46   23   24 ar
  47   23   48 1
  48   24   25 ar
  49   24   49 1
  50   25   26 ar
  51   25   27 1
  52   26   50 1
  53   27   28 1
  54   28   51 1
  55   28   52 1
  56   28   53 1

#	End of record

