#	Name: ASD03430999
#	Creating user name:	WinNT
#	Creation time:	15. 06. 2019 20:41

#	Modifying user name:	WinNT
#	Modification time:	15. 06. 2019 20:41

#	Program:	/corina/corina34_cracker 3.40 0067  02.08.2006

@<TRIPOS>MOLECULE
ASD03430999
  53   58    0    0    0
SMALL
NO_CHARGES


@<TRIPOS>ATOM
   1 N1            -0.0162     1.3438     0.0094 N.am    
   2 C2             0.0021    -0.0041     0.0020 C.2     
   3 C3             1.4471    -0.4120    -0.0154 C.3     
   4 C4             2.2230     0.8716    -0.0139 C.ar    
   5 C5             3.5670     1.1710    -0.0234 C.ar    
   6 C6             3.9831     2.4904    -0.0196 C.ar    
   7 C7             3.0460     3.5076    -0.0070 C.ar    
   8 C8             1.6986     3.2128     0.0033 C.ar    
   9 C9             1.2706     1.8874     0.0001 C.ar    
  10 O10            1.6891    -2.6156    -0.7066 O.3     
  11 C11            1.9367    -2.5883     0.6332 C.ar    
  12 C12            1.8046    -1.3002     1.1454 C.ar    
  13 C13            1.7796    -1.2798    -1.2373 C.3     
  14 C14            2.2809    -3.6181     1.4990 C.ar    
  15 C15            2.0014    -1.0639     2.4853 C.ar    
  16 C16            2.3407    -2.1005     3.3462 C.ar    
  17 C17            2.5476    -1.7672     4.8003 C.3     
  18 C18            2.4777    -3.0308     5.6555 C.3     
  19 C19            3.4236    -4.0754     5.0513 C.3     
  20 C20            2.8326    -4.5519     3.7261 C.3     
  21 C21            2.4787    -3.3779     2.8504 C.ar    
  22 O22           -0.9600    -0.7425     0.0086 O.2     
  23 C23           -1.2426     2.1451     0.0198 C.3     
  24 O24           -1.9335     1.1790     2.1338 O.3     
  25 C25           -1.6621     2.4167     1.4659 C.3     
  26 C26           -2.9601     3.2523     1.4865 C.3     
  27 C27           -3.7418     2.6178     2.6689 C.3     
  28 C28           -3.3089     1.1352     2.5458 C.3     
  29 H29            4.2970     0.3751    -0.0335 H       
  30 H30            5.0371     2.7256    -0.0261 H       
  31 H31            3.3709     4.5376    -0.0050 H       
  32 H32            0.9729     4.0126     0.0144 H       
  33 H33            1.0473    -1.1281    -2.0304 H       
  34 H34            2.7881    -1.0733    -1.5957 H       
  35 H35            2.3964    -4.6206     1.1143 H       
  36 H36            1.8915    -0.0619     2.8729 H       
  37 H37            3.5247    -1.3010     4.9269 H       
  38 H38            1.7733    -1.0713     5.1233 H       
  39 H39            2.7869    -2.8017     6.6753 H       
  40 H40            1.4582    -3.4165     5.6582 H       
  41 H41            4.4019    -3.6274     4.8769 H       
  42 H42            3.5223    -4.9196     5.7338 H       
  43 H43            3.5622    -5.1771     3.2114 H       
  44 H44            1.9343    -5.1370     3.9230 H       
  45 H45           -1.0626     3.0915    -0.4902 H       
  46 H46           -2.0362     1.6014    -0.4927 H       
  47 H47           -0.8692     2.9524     1.9878 H       
  48 H48           -2.7426     4.3020     1.6840 H       
  49 H49           -3.5098     3.1381     0.5522 H       
  50 H50           -3.4250     3.0417     3.6218 H       
  51 H51           -4.8177     2.7256     2.5314 H       
  52 H52           -3.9128     0.6258     1.7948 H       
  53 H53           -3.3994     0.6334     3.5092 H       
@<TRIPOS>BOND
   1    1    2 am
   2    1    9 1
   3    1   23 1
   4    2    3 1
   5    2   22 2
   6    3    4 1
   7    3   12 1
   8    3   13 1
   9    4    5 ar
  10    4    9 ar
  11    5    6 ar
  12    5   29 1
  13    6    7 ar
  14    6   30 1
  15    7    8 ar
  16    7   31 1
  17    8    9 ar
  18    8   32 1
  19   10   11 1
  20   10   13 1
  21   11   12 ar
  22   11   14 ar
  23   12   15 ar
  24   13   33 1
  25   13   34 1
  26   14   21 ar
  27   14   35 1
  28   15   16 ar
  29   15   36 1
  30   16   17 1
  31   16   21 ar
  32   17   18 1
  33   17   37 1
  34   17   38 1
  35   18   19 1
  36   18   39 1
  37   18   40 1
  38   19   20 1
  39   19   41 1
  40   19   42 1
  41   20   21 1
  42   20   43 1
  43   20   44 1
  44   23   25 1
  45   23   45 1
  46   23   46 1
  47   24   25 1
  48   24   28 1
  49   25   26 1
  50   25   47 1
  51   26   27 1
  52   26   48 1
  53   26   49 1
  54   27   28 1
  55   27   50 1
  56   27   51 1
  57   28   52 1
  58   28   53 1

#	End of record

