#	Name: ASD01700024
#	Creating user name:	WinNT
#	Creation time:	15. 06. 2019 19:22

#	Modifying user name:	WinNT
#	Modification time:	15. 06. 2019 19:22

#	Program:	/corina/corina34_cracker 3.40 0067  02.08.2006

@<TRIPOS>MOLECULE
ASD01700024
  91   94    0    0    0
SMALL
NO_CHARGES


@<TRIPOS>ATOM
   1 C1             0.2738     2.5820    -0.8918 C.2     
   2 C2             0.2120     1.1324    -1.2985 C.3     
   3 C3             1.2692     0.3729    -0.4852 C.3     
   4 C4             2.6431     0.9441    -0.8299 C.3     
   5 C5             2.7316     2.4214    -0.5281 C.3     
   6 C6             1.4136     3.1374    -0.5241 C.2     
   7 C7             1.4092     4.5324    -0.0257 C.2     
   8 C8             3.4254     2.6914     0.8090 C.3     
   9 C9             3.6849     4.1937     0.9327 C.3     
  10 C10            2.4516     4.9937     0.6432 C.2     
  11 C11           -1.1779     0.5682    -0.9970 C.3     
  12 O12            3.6535     0.2428    -0.0582 O.3     
  13 H13            3.3364     2.8820    -1.3093 H       
  14 C14            4.7545     1.9352     0.8594 C.3     
  15 C15            4.7828     4.5936    -0.0550 C.3     
  16 C16            5.6585     2.5630     1.9221 C.3     
  17 C17            6.9876     1.8068     1.9725 C.3     
  18 O18            7.6989     1.9796     0.7159 O.3     
  19 C19            8.9939     1.6282     0.6910 C.2     
  20 N20            9.7231     1.4494     1.7977 N.am    
  21 C21            9.1682     1.5718     3.1432 C.3     
  22 C22            7.8637     2.3730     3.0984 C.3     
  23 C23           10.1747     2.2899     4.0445 C.3     
  24 C24            4.1911    -0.8549    -0.6130 C.2     
  25 C25            5.2459    -1.6347     0.1290 C.3     
  26 O26            3.8294    -1.2177    -1.7072 O.2     
  27 C27            5.6871    -2.8297    -0.7184 C.3     
  28 C28            6.8439    -3.5493    -0.0221 C.3     
  29 O29            9.5289     1.4646    -0.3877 O.2     
  30 C30            9.6581     2.3076     5.4601 C.2     
  31 N31           10.3131     3.0071     6.4078 N.am    
  32 C32            9.8760     2.9358     7.8042 C.3     
  33 O33            8.6530     1.6923     5.7465 O.2     
  34 C34           11.1422     1.1151     1.6540 C.3     
  35 C35           11.3163    -0.3799     1.7295 C.ar    
  36 C36           11.4265    -1.0001     2.9602 C.ar    
  37 C37           11.3597    -1.1287     0.5683 C.ar    
  38 C38           11.5198    -2.5034     0.6360 C.ar    
  39 C39           11.6364    -3.1271     1.8745 C.ar    
  40 C40           11.5867    -2.3712     3.0348 C.ar    
  41 O41           11.5623    -3.2416    -0.5054 O.3     
  42 C42           11.5533    -2.5254    -1.7419 C.3     
  43 O43           11.7931    -4.4760     1.9462 O.3     
  44 C44            4.6714    -2.1347     1.4559 C.3     
  45 H45           -0.6274     3.1769    -0.9056 H       
  46 H46            0.4268     1.0380    -2.3629 H       
  47 H47            1.0750     0.5007     0.5797 H       
  48 H48            1.2374    -0.6864    -0.7402 H       
  49 H49            2.8366     0.7866    -1.8909 H       
  50 H50            0.5571     5.1704    -0.2086 H       
  51 H51            2.7839     2.3627     1.6266 H       
  52 H52            4.0221     4.4141     1.9455 H       
  53 H53            2.4120     6.0111     1.0034 H       
  54 H54           -1.9271     1.1310    -1.5539 H       
  55 H55           -1.2166    -0.4800    -1.2931 H       
  56 H56           -1.3802     0.6519     0.0708 H       
  57 H57            4.5691     0.8910     1.1109 H       
  58 H58            5.2428     1.9934    -0.1134 H       
  59 H59            4.4617     4.3589    -1.0698 H       
  60 H60            4.9735     5.6637     0.0274 H       
  61 H61            5.6955     4.0433     0.1738 H       
  62 H62            5.8439     3.6073     1.6706 H       
  63 H63            5.1702     2.5048     2.8949 H       
  64 H64            6.8016     0.7471     2.1475 H       
  65 H65            8.9695     0.5781     3.5447 H       
  66 H66            8.0831     3.4222     2.9005 H       
  67 H67            7.3428     2.2797     4.0513 H       
  68 H68           11.1297     1.7654     4.0127 H       
  69 H69           10.3104     3.3132     3.6945 H       
  70 H70            6.1037    -0.9911     0.3239 H       
  71 H71            4.8507    -3.5183    -0.8388 H       
  72 H72            6.0136    -2.4799    -1.6978 H       
  73 H73            6.5174    -3.8991     0.9572 H       
  74 H74            7.1582    -4.4007    -0.6258 H       
  75 H75            7.6803    -2.8608     0.0983 H       
  76 H76           11.0740     3.5577     6.1652 H       
  77 H77            8.8801     3.3692     7.8958 H       
  78 H78            9.8498     1.8941     8.1240 H       
  79 H79           10.5730     3.4911     8.4319 H       
  80 H80           11.5045     1.4749     0.6909 H       
  81 H81           11.7098     1.5880     2.4554 H       
  82 H82           11.3876    -0.4121     3.8653 H       
  83 H83           11.2686    -0.6423    -0.3917 H       
  84 H84           11.6733    -2.8532     3.9974 H       
  85 H85           12.3704    -1.8040    -1.7498 H       
  86 H86           11.6785    -3.2253    -2.5681 H       
  87 H87           10.6042    -2.0006    -1.8509 H       
  88 H88           12.7156    -4.7660     1.9348 H       
  89 H89            3.8136    -2.7783     1.2610 H       
  90 H90            5.4343    -2.6988     1.9926 H       
  91 H91            4.3571    -1.2833     2.0596 H       
@<TRIPOS>BOND
   1    1    2 1
   2    1    6 2
   3    1   45 1
   4    2    3 1
   5    2   11 1
   6    2   46 1
   7    3    4 1
   8    3   47 1
   9    3   48 1
  10    4    5 1
  11    4   12 1
  12    4   49 1
  13    5   13 1
  14    5    6 1
  15    5    8 1
  16    6    7 1
  17    7   10 2
  18    7   50 1
  19    8    9 1
  20    8   14 1
  21    8   51 1
  22    9   10 1
  23    9   15 1
  24    9   52 1
  25   10   53 1
  26   11   54 1
  27   11   55 1
  28   11   56 1
  29   12   24 1
  30   14   16 1
  31   14   57 1
  32   14   58 1
  33   15   59 1
  34   15   60 1
  35   15   61 1
  36   16   17 1
  37   16   62 1
  38   16   63 1
  39   17   18 1
  40   17   22 1
  41   17   64 1
  42   18   19 1
  43   19   20 am
  44   19   29 2
  45   20   21 1
  46   20   34 1
  47   21   22 1
  48   21   23 1
  49   21   65 1
  50   22   66 1
  51   22   67 1
  52   23   30 1
  53   23   68 1
  54   23   69 1
  55   24   25 1
  56   24   26 2
  57   25   27 1
  58   25   44 1
  59   25   70 1
  60   27   28 1
  61   27   71 1
  62   27   72 1
  63   28   73 1
  64   28   74 1
  65   28   75 1
  66   30   31 am
  67   30   33 2
  68   31   32 1
  69   31   76 1
  70   32   77 1
  71   32   78 1
  72   32   79 1
  73   34   35 1
  74   34   80 1
  75   34   81 1
  76   35   37 ar
  77   35   36 ar
  78   36   40 ar
  79   36   82 1
  80   37   38 ar
  81   37   83 1
  82   38   39 ar
  83   38   41 1
  84   39   40 ar
  85   39   43 1
  86   40   84 1
  87   41   42 1
  88   42   85 1
  89   42   86 1
  90   42   87 1
  91   43   88 1
  92   44   89 1
  93   44   90 1
  94   44   91 1

#	End of record

