#	Name: ASD03081133
#	Creating user name:	WinNT
#	Creation time:	15. 06. 2019 20:27

#	Modifying user name:	WinNT
#	Modification time:	15. 06. 2019 20:27

#	Program:	/corina/corina34_cracker 3.40 0067  02.08.2006

@<TRIPOS>MOLECULE
ASD03081133
  25   27    0    0    0
SMALL
NO_CHARGES


@<TRIPOS>ATOM
   1 O1            -0.0144     1.2085     0.0087 O.3     
   2 N2             0.0021    -0.0041     0.0020 N.2     
   3 C3             1.2348    -0.4424    -0.0121 C.2     
   4 N4             2.0459     0.6359    -0.0141 N.2     
   5 C5             1.2413     1.6828    -0.0008 C.2     
   6 C6             1.6454     3.1031     0.0026 C.ar    
   7 C7             0.6741     4.1092     0.0173 C.ar    
   8 C8             1.0604     5.4376     0.0203 C.ar    
   9 C9             2.4071     5.7694     0.0083 C.ar    
  10 C10            3.3717     4.7740    -0.0068 C.ar    
  11 C11            2.9988     3.4468    -0.0032 C.ar    
  12 F12            2.7802     7.0679     0.0108 F       
  13 F13            0.1251     6.4124     0.0345 F       
  14 F14           -0.6373     3.7849     0.0281 F       
  15 C15            2.4332    -4.4281    -0.0438 C.ar    
  16 N16            1.1449    -4.1485    -0.0299 N.ar    
  17 C17            0.7213    -2.8963    -0.0194 C.ar    
  18 C18            1.6622    -1.8639    -0.0231 C.ar    
  19 C19            3.0164    -2.2060    -0.0379 C.ar    
  20 N20            3.3536    -3.4843    -0.0477 N.ar    
  21 H21            4.4186     5.0390    -0.0165 H       
  22 H22            3.7527     2.6735    -0.0097 H       
  23 H23            2.7442    -5.4623    -0.0475 H       
  24 H24           -0.3358    -2.6749    -0.0084 H       
  25 H25            3.7761    -1.4384    -0.0409 H       
@<TRIPOS>BOND
   1    1    2 1
   2    1    5 1
   3    2    3 2
   4    3    4 1
   5    3   18 1
   6    4    5 2
   7    5    6 1
   8    6    7 ar
   9    6   11 ar
  10    7    8 ar
  11    7   14 1
  12    8    9 ar
  13    8   13 1
  14    9   10 ar
  15    9   12 1
  16   10   11 ar
  17   10   21 1
  18   11   22 1
  19   15   16 ar
  20   15   20 ar
  21   15   23 1
  22   16   17 ar
  23   17   18 ar
  24   17   24 1
  25   18   19 ar
  26   19   20 ar
  27   19   25 1

#	End of record

