#	Name: ASD02039278
#	Creating user name:	WinNT
#	Creation time:	15. 06. 2019 20:18

#	Modifying user name:	WinNT
#	Modification time:	15. 06. 2019 20:18

#	Program:	/corina/corina34_cracker 3.40 0067  02.08.2006

@<TRIPOS>MOLECULE
ASD02039278
  47   49    0    0    0
SMALL
NO_CHARGES


@<TRIPOS>ATOM
   1 C1             0.1355     1.1847    -0.3171 C.ar    
   2 C2             0.5172    -0.0933     0.0491 C.ar    
   3 C3            -0.3872    -1.1374    -0.0191 C.ar    
   4 C4            -1.6789    -0.9083    -0.4548 C.ar    
   5 C5            -2.0683     0.3798    -0.8253 C.ar    
   6 C6            -1.1533     1.4272    -0.7480 C.ar    
   7 C7            -3.4530     0.6335    -1.2940 C.ar    
   8 C8            -4.2052     1.6702    -0.7481 C.ar    
   9 N9            -5.4352     1.8980    -1.1629 N.ar    
  10 C10           -6.0006     1.1620    -2.1024 C.ar    
  11 C11           -5.3160     0.1117    -2.6944 C.ar    
  12 C12           -4.0205    -0.1614    -2.2948 C.ar    
  13 C13            1.1276     2.3165    -0.2396 C.3     
  14 N14            1.9438     2.3345    -1.4560 N.am    
  15 C15            1.4505     3.0089    -2.6593 C.3     
  16 C16            3.1487     1.7306    -1.4680 C.2     
  17 C17            3.6001     0.9639    -0.2938 C.2     
  18 C18            4.7329     0.2082    -0.2110 C.2     
  19 C19            2.4336     4.1080    -3.0673 C.3     
  20 N20            2.9677     0.8853     0.9049 N.2     
  21 C21            3.6603     0.1188     1.6968 C.2     
  22 N22            4.7632    -0.3190     1.0355 N.pl3   
  23 O23            3.8633     1.8187    -2.4482 O.2     
  24 C24            5.7992    -1.2037     1.5743 C.3     
  25 F25           -7.2647     1.4364    -2.4922 F       
  26 F26           -2.5620    -1.9285    -0.5223 F       
  27 C27            1.3204     1.9933    -3.7961 C.3     
  28 H28            1.5256    -0.2767     0.3894 H       
  29 H29           -0.0837    -2.1333     0.2681 H       
  30 H30           -1.4493     2.4260    -1.0331 H       
  31 H31           -3.7767     2.2935     0.0229 H       
  32 H32           -5.7877    -0.4840    -3.4619 H       
  33 H33           -3.4639    -0.9734    -2.7389 H       
  34 H34            0.5934     3.2620    -0.1464 H       
  35 H35            1.7719     2.1761     0.6283 H       
  36 H36            0.4756     3.4513    -2.4540 H       
  37 H37            5.4652     0.0589    -0.9907 H       
  38 H38            3.4242     3.6756    -3.2077 H       
  39 H39            2.1012     4.5651    -3.9993 H       
  40 H40            2.4757     4.8663    -2.2854 H       
  41 H41            3.4015    -0.1270     2.7161 H       
  42 H42            5.5310    -2.2411     1.3745 H       
  43 H43            6.7536    -0.9772     1.0992 H       
  44 H44            5.8837    -1.0511     2.6503 H       
  45 H45            0.5860     1.2352    -3.5239 H       
  46 H46            0.9970     2.5031    -4.7036 H       
  47 H47            2.2856     1.5179    -3.9708 H       
@<TRIPOS>BOND
   1    1    2 ar
   2    1   13 1
   3    1    6 ar
   4    2    3 ar
   5    2   28 1
   6    3    4 ar
   7    3   29 1
   8    4    5 ar
   9    4   26 1
  10    5    6 ar
  11    5    7 1
  12    6   30 1
  13    7    8 ar
  14    7   12 ar
  15    8    9 ar
  16    8   31 1
  17    9   10 ar
  18   10   11 ar
  19   10   25 1
  20   11   12 ar
  21   11   32 1
  22   12   33 1
  23   13   14 1
  24   13   34 1
  25   13   35 1
  26   14   15 1
  27   14   16 am
  28   15   27 1
  29   15   19 1
  30   15   36 1
  31   16   17 1
  32   16   23 2
  33   17   18 2
  34   17   20 1
  35   18   22 1
  36   18   37 1
  37   19   38 1
  38   19   39 1
  39   19   40 1
  40   20   21 2
  41   21   22 1
  42   21   41 1
  43   22   24 1
  44   24   42 1
  45   24   43 1
  46   24   44 1
  47   27   45 1
  48   27   46 1
  49   27   47 1

#	End of record

