#	Name: ASD03320159
#	Creating user name:	WinNT
#	Creation time:	15. 06. 2019 20:36

#	Modifying user name:	WinNT
#	Modification time:	15. 06. 2019 20:36

#	Program:	/corina/corina34_cracker 3.40 0067  02.08.2006

@<TRIPOS>MOLECULE
ASD03320159
  20   20    0    0    0
SMALL
NO_CHARGES


@<TRIPOS>ATOM
   1 N1            -0.0169     1.3925     0.0097 N.pl3   
   2 C2             0.0021    -0.0041     0.0020 C.ar    
   3 C3             1.2135    -0.6838    -0.0132 C.ar    
   4 C4             1.2286    -2.0647    -0.0203 C.ar    
   5 C5             0.0396    -2.7708    -0.0122 C.ar    
   6 C6            -1.1681    -2.0973     0.0029 C.ar    
   7 C7            -1.1904    -0.7165     0.0154 C.ar    
   8 C8             0.0600    -4.2776    -0.0205 C.3     
   9 C9             0.0813    -4.7953     1.4191 C.3     
  10 F10            1.2237    -4.3170     2.0698 F       
  11 F11           -1.0606    -4.3481     2.0924 F       
  12 F12           -1.0823    -4.7559    -0.6712 F       
  13 F13            1.2019    -4.7248    -0.6938 F       
  14 Cl14           0.1058    -6.5981     1.4092 Cl      
  15 H15            0.8165     1.8889     0.0044 H       
  16 H16           -0.8634     1.8661     0.0163 H       
  17 H17            2.1424    -0.1329    -0.0198 H       
  18 H18            2.1700    -2.5937    -0.0325 H       
  19 H19           -2.0948    -2.6518     0.0092 H       
  20 H20           -2.1338    -0.1912     0.0317 H       
@<TRIPOS>BOND
   1    1    2 1
   2    1   15 1
   3    1   16 1
   4    2    3 ar
   5    2    7 ar
   6    3    4 ar
   7    3   17 1
   8    4    5 ar
   9    4   18 1
  10    5    6 ar
  11    5    8 1
  12    6    7 ar
  13    6   19 1
  14    7   20 1
  15    8    9 1
  16    8   12 1
  17    8   13 1
  18    9   10 1
  19    9   11 1
  20    9   14 1

#	End of record

