#	Name: ASD00844762
#	Creating user name:	WinNT
#	Creation time:	15. 06. 2019 18:50

#	Modifying user name:	WinNT
#	Modification time:	15. 06. 2019 18:50

#	Program:	/corina/corina34_cracker 3.40 0067  02.08.2006

@<TRIPOS>MOLECULE
ASD00844762
 101  106    0    0    0
SMALL
NO_CHARGES


@<TRIPOS>ATOM
   1 F1             5.6860    -2.4012    -1.8764 F       
   2 C2             0.8325     1.1970    -0.3579 C.ar    
   3 C3             1.0313    -0.1467    -0.6387 C.ar    
   4 C4             0.8488    -1.0955     0.3572 C.ar    
   5 C5             0.4699    -0.7000     1.6252 C.ar    
   6 C6             0.2719     0.6403     1.9024 C.ar    
   7 C7             0.4535     1.5876     0.9120 C.ar    
   8 C8             1.0635    -2.5563     0.0556 C.3     
   9 C9             0.6776    -3.4062     1.2474 C.2     
  10 C10            0.2618    -2.9705    -1.1801 C.3     
  11 C11           -1.1882    -2.6109    -0.9819 C.2     
  12 N12           -2.1049    -2.9777    -1.8993 N.am    
  13 O13           -1.5302    -1.9914     0.0031 O.2     
  14 C14           -3.5051    -2.5429    -1.7830 C.3     
  15 C15           -3.9347    -1.9232    -3.1170 C.3     
  16 N16           -3.6681    -2.8748    -4.2038 N.3     
  17 C17           -2.2310    -3.1534    -4.3275 C.3     
  18 C18           -1.7303    -3.8185    -3.0465 C.3     
  19 C19           -4.2218    -2.3905    -5.4753 C.3     
  20 C20           -3.8187    -3.3426    -6.6047 C.3     
  21 C21           -4.4486    -2.8667    -7.9157 C.3     
  22 N22           -5.9101    -2.8361    -7.7753 N.3     
  23 C23           -6.3233    -1.8929    -6.7284 C.3     
  24 C24           -5.7493    -2.3397    -5.3819 C.3     
  25 C25           -6.5554    -2.5172    -9.0558 C.3     
  26 O26           -0.4224    -3.4810     1.7529 O.2     
  27 N27            1.7823    -4.0628     1.6396 N.am    
  28 C28            2.5337    -2.8457    -0.1421 C.ar    
  29 C29            2.8891    -3.7563     0.8451 C.ar    
  30 C30            3.4626    -2.3917    -1.0511 C.ar    
  31 C31            4.7709    -2.8443    -0.9868 C.ar    
  32 C32            5.1372    -3.7526    -0.0065 C.ar    
  33 C33            4.2055    -4.2079     0.9052 C.ar    
  34 Cl34           6.7756    -4.3208     0.0758 Cl      
  35 C35            1.4517    -6.7166     2.2896 C.ar    
  36 C36            0.1970    -6.9762     1.7571 C.ar    
  37 C37            2.4094    -7.7124     2.3220 C.ar    
  38 C38            2.1205    -8.9683     1.8241 C.ar    
  39 C39            0.8669    -9.2330     1.2904 C.ar    
  40 C40           -0.0955    -8.2360     1.2571 C.ar    
  41 O41            0.5832   -10.4687     0.8012 O.3     
  42 O42           -0.7445    -5.9967     1.7259 O.3     
  43 C43            1.6224   -11.4473     0.8682 C.3     
  44 C44           -2.0139    -6.3347     1.1634 C.3     
  45 C45           -2.9357    -5.1147     1.2148 C.3     
  46 C46           -8.0647    -2.7372    -8.9350 C.3     
  47 C47           -8.7369    -2.4050   -10.2687 C.3     
  48 S48            1.8266    -5.1139     2.9185 S.o2    
  49 O49            3.1785    -5.1598     3.3537 O.2     
  50 O50            0.7476    -4.7547     3.7706 O.2     
  51 O51            1.4037    -0.5334    -1.8871 O.3     
  52 C52            1.4893     0.4870    -2.8838 C.3     
  53 C53            2.0099    -0.1176    -4.1893 C.3     
  54 F54            3.2367    -0.7478    -3.9548 F       
  55 F55            1.0885    -1.0546    -4.6693 F       
  56 H56            0.9782     1.9378    -1.1302 H       
  57 H57            0.3277    -1.4381     2.4007 H       
  58 H58           -0.0251     0.9475     2.8943 H       
  59 H59            0.2982     2.6337     1.1310 H       
  60 H60            0.6490    -2.4495    -2.0557 H       
  61 H61            0.3524    -4.0466    -1.3280 H       
  62 H62           -4.1376    -3.4015    -1.5575 H       
  63 H63           -3.5934    -1.8011    -0.9893 H       
  64 H64           -5.0003    -1.6957    -3.0859 H       
  65 H65           -3.3716    -1.0061    -3.2901 H       
  66 H66           -2.0610    -3.8181    -5.1745 H       
  67 H67           -1.6916    -2.2192    -4.4838 H       
  68 H68           -0.6460    -3.9225    -3.0876 H       
  69 H69           -2.1914    -4.8003    -2.9393 H       
  70 H70           -3.8354    -1.3930    -5.6845 H       
  71 H71           -2.7333    -3.3502    -6.7042 H       
  72 H72           -4.1708    -4.3484    -6.3758 H       
  73 H73           -4.0854    -1.8663    -8.1511 H       
  74 H74           -4.1752    -3.5506    -8.7193 H       
  75 H75           -5.9513    -0.8971    -6.9693 H       
  76 H76           -7.4114    -1.8696    -6.6695 H       
  77 H77           -6.1318    -3.3298    -5.1338 H       
  78 H78           -6.0432    -1.6309    -4.6078 H       
  79 H79           -6.3594    -1.4760    -9.3121 H       
  80 H80           -6.1551    -3.1649    -9.8357 H       
  81 H81            3.1721    -1.6841    -1.8135 H       
  82 H82            4.4980    -4.9158     1.6665 H       
  83 H83            3.3854    -7.5084     2.7370 H       
  84 H84            2.8709    -9.7446     1.8499 H       
  85 H85           -1.0716    -8.4401     0.8425 H       
  86 H86            1.2650   -12.3863     0.4455 H       
  87 H87            2.4863   -11.0993     0.3019 H       
  88 H88            1.9085   -11.6027     1.9085 H       
  89 H89           -1.8809    -6.6463     0.1274 H       
  90 H90           -2.4585    -7.1503     1.7338 H       
  91 H91           -3.0687    -4.8032     2.2508 H       
  92 H92           -2.4911    -4.2991     0.6444 H       
  93 H93           -3.9039    -5.3725     0.7857 H       
  94 H94           -8.2607    -3.7784    -8.6788 H       
  95 H95           -8.4650    -2.0895    -8.1551 H       
  96 H96           -9.8121    -2.5618   -10.1827 H       
  97 H97           -8.5408    -1.3639   -10.5250 H       
  98 H98           -8.3365    -3.0527   -11.0487 H       
  99 H99            0.5012     0.9158    -3.0506 H       
 100 H100           2.1719     1.2673    -2.5472 H       
 101 H101           2.1427     0.6727    -4.9282 H       
@<TRIPOS>BOND
   1    1   31 1
   2    2    3 ar
   3    2    7 ar
   4    2   56 1
   5    3    4 ar
   6    3   51 1
   7    4    5 ar
   8    4    8 1
   9    5    6 ar
  10    5   57 1
  11    6    7 ar
  12    6   58 1
  13    7   59 1
  14    8    9 1
  15    8   10 1
  16    8   28 1
  17    9   26 2
  18    9   27 am
  19   10   11 1
  20   10   60 1
  21   10   61 1
  22   11   12 am
  23   11   13 2
  24   12   14 1
  25   12   18 1
  26   14   15 1
  27   14   62 1
  28   14   63 1
  29   15   16 1
  30   15   64 1
  31   15   65 1
  32   16   17 1
  33   16   19 1
  34   17   18 1
  35   17   66 1
  36   17   67 1
  37   18   68 1
  38   18   69 1
  39   19   20 1
  40   19   24 1
  41   19   70 1
  42   20   21 1
  43   20   71 1
  44   20   72 1
  45   21   22 1
  46   21   73 1
  47   21   74 1
  48   22   23 1
  49   22   25 1
  50   23   24 1
  51   23   75 1
  52   23   76 1
  53   24   77 1
  54   24   78 1
  55   25   46 1
  56   25   79 1
  57   25   80 1
  58   27   48 am
  59   27   29 1
  60   28   29 ar
  61   28   30 ar
  62   29   33 ar
  63   30   31 ar
  64   30   81 1
  65   31   32 ar
  66   32   33 ar
  67   32   34 1
  68   33   82 1
  69   35   36 ar
  70   35   37 ar
  71   35   48 1
  72   36   42 1
  73   36   40 ar
  74   37   38 ar
  75   37   83 1
  76   38   39 ar
  77   38   84 1
  78   39   40 ar
  79   39   41 1
  80   40   85 1
  81   41   43 1
  82   42   44 1
  83   43   86 1
  84   43   87 1
  85   43   88 1
  86   44   45 1
  87   44   89 1
  88   44   90 1
  89   45   91 1
  90   45   92 1
  91   45   93 1
  92   46   47 1
  93   46   94 1
  94   46   95 1
  95   47   96 1
  96   47   97 1
  97   47   98 1
  98   48   49 2
  99   48   50 2
 100   51   52 1
 101   52   53 1
 102   52   99 1
 103   52  100 1
 104   53   54 1
 105   53   55 1
 106   53  101 1

#	End of record

