#	Name: ASD01141071
#	Creating user name:	WinNT
#	Creation time:	15. 06. 2019 19:01

#	Modifying user name:	WinNT
#	Modification time:	15. 06. 2019 19:01

#	Program:	/corina/corina34_cracker 3.40 0067  02.08.2006

@<TRIPOS>MOLECULE
ASD01141071
  44   46    0    0    0
SMALL
NO_CHARGES


@<TRIPOS>ATOM
   1 C1             0.3274     0.9357    -0.3144 C.2     
   2 C2            -0.2308    -0.3073     0.2282 C.2     
   3 C3             0.6189     1.0461    -1.7595 C.ar    
   4 O4             0.5460     1.8780     0.4242 O.2     
   5 C5             0.5657    -1.5411     0.2061 C.2     
   6 C6            -1.5061    -0.3175     0.7602 C.2     
   7 C7             0.2542     0.0164    -2.6294 C.ar    
   8 C8             1.2552     2.1838    -2.2622 C.ar    
   9 O9             0.0571    -2.5993     0.5257 O.2     
  10 N10            1.8598    -1.5012    -0.1681 N.am    
  11 N11           -1.9451    -1.3978     1.4400 N.pl3   
  12 C12            0.5286     0.1259    -3.9763 C.ar    
  13 C13            1.5238     2.2798    -3.6139 C.ar    
  14 Cl14           1.7067     3.4733    -1.1914 Cl      
  15 C15           -3.2701    -1.4546     1.8819 C.ar    
  16 C16            1.1641     1.2532    -4.4677 C.ar    
  17 C17           -4.1377    -0.4025     1.6171 C.ar    
  18 C18           -3.7233    -2.5658     2.5817 C.ar    
  19 C19           -5.4463    -0.4615     2.0544 C.ar    
  20 C20           -5.0328    -2.6194     3.0166 C.ar    
  21 C21           -5.8936    -1.5675     2.7559 C.ar    
  22 Cl22          -7.5390    -1.6380     3.3046 Cl      
  23 H23            2.2847    -0.6494    -0.3547 H       
  24 H24           -1.3411    -2.1347     1.6220 H       
  25 C25            2.6249    -2.7443    -0.2930 C.3     
  26 C26            3.8451    -2.6260    -1.2213 C.3     
  27 C27            4.6045    -3.4939    -0.2040 C.3     
  28 C28            3.6204    -2.9731     0.8566 C.3     
  29 H29           -2.1516     0.5388     0.6321 H       
  30 H30           -0.2413    -0.8641    -2.2479 H       
  31 H31            0.2506    -0.6720    -4.6490 H       
  32 H32            2.0153     3.1585    -4.0046 H       
  33 H33            1.3763     1.3332    -5.5236 H       
  34 H34           -3.7891     0.4609     1.0700 H       
  35 H35           -3.0521    -3.3871     2.7851 H       
  36 H36           -6.1211     0.3563     1.8491 H       
  37 H37           -5.3857    -3.4830     3.5607 H       
  38 H38            1.9961    -3.6087    -0.5064 H       
  39 H39            3.7060    -3.1082    -2.1889 H       
  40 H40            4.2333    -1.6109    -1.3051 H       
  41 H41            4.5177    -4.5640    -0.3922 H       
  42 H42            5.6335    -3.1742    -0.0393 H       
  43 H43            3.9470    -2.0529     1.3409 H       
  44 H44            3.2998    -3.7355     1.5666 H       
@<TRIPOS>BOND
   1    1    2 1
   2    1    3 1
   3    1    4 2
   4    2    5 1
   5    2    6 2
   6    3    7 ar
   7    3    8 ar
   8    5   10 am
   9    5    9 2
  10    6   11 1
  11    6   29 1
  12    7   12 ar
  13    7   30 1
  14    8   13 ar
  15    8   14 1
  16   10   23 1
  17   10   25 1
  18   11   24 1
  19   11   15 1
  20   12   16 ar
  21   12   31 1
  22   13   16 ar
  23   13   32 1
  24   15   18 ar
  25   15   17 ar
  26   16   33 1
  27   17   19 ar
  28   17   34 1
  29   18   20 ar
  30   18   35 1
  31   19   21 ar
  32   19   36 1
  33   20   21 ar
  34   20   37 1
  35   21   22 1
  36   25   26 1
  37   25   28 1
  38   25   38 1
  39   26   27 1
  40   26   39 1
  41   26   40 1
  42   27   28 1
  43   27   41 1
  44   27   42 1
  45   28   43 1
  46   28   44 1

#	End of record

