#	Name: ASD01940543
#	Creating user name:	WinNT
#	Creation time:	15. 06. 2019 20:12

#	Modifying user name:	WinNT
#	Modification time:	15. 06. 2019 20:12

#	Program:	/corina/corina34_cracker 3.40 0067  02.08.2006

@<TRIPOS>MOLECULE
ASD01940543
  29   31    0    0    0
SMALL
NO_CHARGES


@<TRIPOS>ATOM
   1 C1            -0.0172     1.4107    -0.0073 C.2     
   2 C2             0.0021    -0.0041     0.0020 C.2     
   3 N3             1.1678     2.0933    -0.0146 N.pl3   
   4 N4             1.1599    -0.6358     0.0035 N.2     
   5 C5             2.3126     0.0386    -0.0036 C.2     
   6 C6             2.3387     1.3874    -0.0133 C.2     
   7 N7             0.8762     3.3455    -0.0222 N.2     
   8 N8            -0.4043     3.4839    -0.0202 N.2     
   9 N9            -0.9733     2.3258    -0.0165 N.2     
  10 N10           -1.1842    -0.7191     0.0100 N.pl3   
  11 C11           -1.1827    -2.1852    -0.1079 C.3     
  12 C12           -2.0295    -2.7659     1.0296 C.3     
  13 N13           -3.3596    -2.1427     1.0128 N.3     
  14 C14           -3.2745    -0.6979     1.2644 C.3     
  15 C15           -2.4783    -0.0330     0.1426 C.3     
  16 C16           -4.2577    -2.7928     1.9766 C.3     
  17 H17            3.2442    -0.5077    -0.0021 H       
  18 H18            3.2842     1.9094    -0.0190 H       
  19 H19           -1.6100    -2.4758    -1.0676 H       
  20 H20           -0.1612    -2.5577    -0.0309 H       
  21 H21           -2.1306    -3.8428     0.8946 H       
  22 H22           -1.5445    -2.5625     1.9844 H       
  23 H23           -4.2785    -0.2751     1.2997 H       
  24 H24           -2.7722    -0.5234     2.2159 H       
  25 H25           -2.3130     1.0167     0.3852 H       
  26 H26           -3.0326    -0.1127    -0.7925 H       
  27 H27           -3.8416    -2.7014     2.9798 H       
  28 H28           -5.2354    -2.3121     1.9436 H       
  29 H29           -4.3625    -3.8473     1.7214 H       
@<TRIPOS>BOND
   1    1    2 1
   2    1    3 1
   3    1    9 2
   4    2    4 2
   5    2   10 1
   6    3    6 1
   7    3    7 1
   8    4    5 1
   9    5    6 2
  10    5   17 1
  11    6   18 1
  12    7    8 2
  13    8    9 1
  14   10   11 1
  15   10   15 1
  16   11   12 1
  17   11   19 1
  18   11   20 1
  19   12   13 1
  20   12   21 1
  21   12   22 1
  22   13   14 1
  23   13   16 1
  24   14   15 1
  25   14   23 1
  26   14   24 1
  27   15   25 1
  28   15   26 1
  29   16   27 1
  30   16   28 1
  31   16   29 1

#	End of record

