#	Name: ASD01911198
#	Creating user name:	WinNT
#	Creation time:	15. 06. 2019 19:57

#	Modifying user name:	WinNT
#	Modification time:	15. 06. 2019 19:57

#	Program:	/corina/corina34_cracker 3.40 0067  02.08.2006

@<TRIPOS>MOLECULE
ASD01911198
  61   63    0    0    0
SMALL
NO_CHARGES


@<TRIPOS>ATOM
   1 C1             0.0262     0.8680     1.9509 C.ar    
   2 N2             0.0230    -0.3353     1.4206 N.ar    
   3 C3             0.9234    -0.7000     0.5158 C.ar    
   4 C4             1.9087     0.1916     0.0980 C.ar    
   5 C5             1.9362     1.4671     0.6402 C.ar    
   6 C6             0.9771     1.8062     1.5815 C.ar    
   7 C7             0.8803    -2.0667    -0.0539 C.2     
   8 N8            -0.0703    -2.9340     0.3467 N.am    
   9 C9            -0.2027    -4.1710    -0.2928 C.ar    
  10 C10           -1.4410    -4.7970    -0.3470 C.ar    
  11 C11           -1.5691    -6.0182    -0.9795 C.ar    
  12 C12           -0.4648    -6.6178    -1.5589 C.ar    
  13 C13            0.7707    -5.9962    -1.5060 C.ar    
  14 C14            0.9032    -4.7727    -0.8799 C.ar    
  15 C15           -2.6441    -4.1449     0.2842 C.3     
  16 N16           -3.2497    -3.2114    -0.6687 N.am    
  17 O17            1.7022    -2.4058    -0.8824 O.2     
  18 Cl18          -0.6292    -8.1527    -2.3531 Cl      
  19 C19           -4.1632    -3.6524    -1.5561 C.2     
  20 C20           -4.7220    -2.7274    -2.5615 C.ar    
  21 C21           -3.8701    -2.0322    -3.4237 C.ar    
  22 C22           -4.3953    -1.1705    -4.3607 C.ar    
  23 C23           -5.7708    -0.9915    -4.4491 C.ar    
  24 C24           -6.6216    -1.6809    -3.5929 C.ar    
  25 C25           -6.1045    -2.5491    -2.6575 C.ar    
  26 O26           -4.5270    -4.8123    -1.5285 O.2     
  27 C27           -2.8625    -1.7986    -0.6570 C.3     
  28 C28           -3.6895    -1.0517     0.3914 C.3     
  29 O29           -6.2846    -0.1410    -5.3735 O.3     
  30 C30           -7.7065    -0.0043    -5.4099 C.3     
  31 C31           -8.0955     0.9887    -6.5069 C.3     
  32 C32           -9.6180     1.1350    -6.5459 C.3     
  33 C33          -10.0070     2.1281    -7.6430 C.3     
  34 H34           -0.7252     1.1303     2.6810 H       
  35 H35            2.6410    -0.1067    -0.6376 H       
  36 H36            2.6879     2.1804     0.3361 H       
  37 H37            0.9708     2.7919     2.0227 H       
  38 H38           -0.6626    -2.7005     1.0784 H       
  39 H39           -2.5319    -6.5057    -1.0216 H       
  40 H40            1.6312    -6.4667    -1.9584 H       
  41 H41            1.8674    -4.2879    -0.8392 H       
  42 H42           -3.3715    -4.9099     0.5558 H       
  43 H43           -2.3362    -3.6026     1.1783 H       
  44 H44           -2.8011    -2.1702    -3.3552 H       
  45 H45           -3.7375    -0.6328    -5.0274 H       
  46 H46           -7.6898    -1.5386    -3.6643 H       
  47 H47           -6.7662    -3.0843    -1.9926 H       
  48 H48           -1.8037    -1.7141    -0.4122 H       
  49 H49           -3.0439    -1.3640    -1.6400 H       
  50 H50           -4.7503    -1.2134     0.1999 H       
  51 H51           -3.4387    -1.4240     1.3847 H       
  52 H52           -3.4687     0.0143     0.3364 H       
  53 H53           -8.1594    -0.9733    -5.6197 H       
  54 H54           -8.0612     0.3615    -4.4463 H       
  55 H55           -7.6426     1.9577    -6.2971 H       
  56 H56           -7.7409     0.6229    -7.4705 H       
  57 H57          -10.0709     0.1660    -6.7557 H       
  58 H58           -9.9726     1.5008    -5.5823 H       
  59 H59           -9.5541     3.0971    -7.4331 H       
  60 H60           -9.6523     1.7623    -8.6065 H       
  61 H61          -11.0916     2.2323    -7.6707 H       
@<TRIPOS>BOND
   1    1    2 ar
   2    1    6 ar
   3    1   34 1
   4    2    3 ar
   5    3    4 ar
   6    3    7 1
   7    4    5 ar
   8    4   35 1
   9    5    6 ar
  10    5   36 1
  11    6   37 1
  12    7    8 am
  13    7   17 2
  14    8    9 1
  15    8   38 1
  16    9   10 ar
  17    9   14 ar
  18   10   11 ar
  19   10   15 1
  20   11   12 ar
  21   11   39 1
  22   12   13 ar
  23   12   18 1
  24   13   14 ar
  25   13   40 1
  26   14   41 1
  27   15   16 1
  28   15   42 1
  29   15   43 1
  30   16   19 am
  31   16   27 1
  32   19   20 1
  33   19   26 2
  34   20   21 ar
  35   20   25 ar
  36   21   22 ar
  37   21   44 1
  38   22   23 ar
  39   22   45 1
  40   23   24 ar
  41   23   29 1
  42   24   25 ar
  43   24   46 1
  44   25   47 1
  45   27   28 1
  46   27   48 1
  47   27   49 1
  48   28   50 1
  49   28   51 1
  50   28   52 1
  51   29   30 1
  52   30   31 1
  53   30   53 1
  54   30   54 1
  55   31   32 1
  56   31   55 1
  57   31   56 1
  58   32   33 1
  59   32   57 1
  60   32   58 1
  61   33   59 1
  62   33   60 1
  63   33   61 1

#	End of record

