#	Name: ASD01911461
#	Creating user name:	WinNT
#	Creation time:	15. 06. 2019 19:57

#	Modifying user name:	WinNT
#	Modification time:	15. 06. 2019 19:57

#	Program:	/corina/corina34_cracker 3.40 0067  02.08.2006

@<TRIPOS>MOLECULE
ASD01911461
  26   25    0    0    0
SMALL
NO_CHARGES


@<TRIPOS>ATOM
   1 C1            -0.0187     1.5258     0.0104 C.3     
   2 C2             0.0021    -0.0041     0.0020 C.3     
   3 C3            -1.4333    -0.5336     0.0129 C.3     
   4 C4            -2.1733    -0.0268    -1.2266 C.3     
   5 O5             0.6709    -0.4649    -1.1737 O.3     
   6 C6            -1.4126    -2.0635     0.0045 C.3     
   7 C7            -2.1494    -0.0402     1.2717 C.3     
   8 C8             0.7421    -0.5109     1.2415 C.3     
   9 N9             1.3595     2.0342     0.0000 N.3     
  10 H10           -0.5459     1.8868    -0.8726 H       
  11 H11           -0.5289     1.8773     0.9072 H       
  12 H12           -1.6631    -0.3783    -2.1234 H       
  13 H13           -3.1959    -0.4041    -1.2189 H       
  14 H14           -2.1881     1.0631    -1.2207 H       
  15 H15            0.2557    -0.1806    -1.9994 H       
  16 H16           -0.8854    -2.4246     0.8875 H       
  17 H17           -2.4352    -2.4408     0.0122 H       
  18 H18           -0.9024    -2.4150    -0.8923 H       
  19 H19           -2.1642     1.0497     1.2777 H       
  20 H20           -3.1720    -0.4175     1.2794 H       
  21 H21           -1.6223    -0.4013     2.1547 H       
  22 H22            0.2319    -0.1594     2.1383 H       
  23 H23            0.7568    -1.6008     1.2356 H       
  24 H24            1.7647    -0.1336     1.2338 H       
  25 H25            1.3727     3.0431     0.0053 H       
  26 H26            1.8883     1.6616     0.7744 H       
@<TRIPOS>BOND
   1    1    2 1
   2    1    9 1
   3    1   10 1
   4    1   11 1
   5    2    3 1
   6    2    5 1
   7    2    8 1
   8    3    4 1
   9    3    6 1
  10    3    7 1
  11    4   12 1
  12    4   13 1
  13    4   14 1
  14    5   15 1
  15    6   16 1
  16    6   17 1
  17    6   18 1
  18    7   19 1
  19    7   20 1
  20    7   21 1
  21    8   22 1
  22    8   23 1
  23    8   24 1
  24    9   25 1
  25    9   26 1

#	End of record

