#	Name: ASD05210001
#	Creating user name:	WinNT
#	Creation time:	15. 06. 2019 20:57

#	Modifying user name:	WinNT
#	Modification time:	15. 06. 2019 20:57

#	Program:	/corina/corina34_cracker 3.40 0067  02.08.2006

@<TRIPOS>MOLECULE
ASD05210001
  58   61    0    0    0
SMALL
NO_CHARGES


@<TRIPOS>ATOM
   1 N1            -0.0178     1.4608     0.0101 N.pl3   
   2 C2             0.0435    -2.0516     1.4332 C.3     
   3 N3            -1.2256     3.4614     0.0267 N.ar    
   4 C4             0.0228    -0.5218     1.4416 C.3     
   5 N5            -2.3546     1.4430     0.0206 N.ar    
   6 C6             0.0021    -0.0041     0.0020 C.3     
   7 C7             1.2408     2.2105     0.0021 C.3     
   8 C8             1.6588     2.4752    -1.4214 C.ar    
   9 C9             1.2361     3.6268    -2.0608 C.ar    
  10 C10            1.6161     3.8747    -3.3640 C.ar    
  11 C11            2.4275     2.9619    -4.0363 C.ar    
  12 C12            2.8504     1.8030    -3.3868 C.ar    
  13 C13            2.4684     1.5684    -2.0816 C.ar    
  14 C14            2.8387     3.2222    -5.4363 C.ar    
  15 C15            1.8877     3.5661    -6.3927 C.ar    
  16 C16            2.2750     3.8082    -7.6956 C.ar    
  17 C17            3.6071     3.7114    -8.0603 C.ar    
  18 C18            4.5639     3.3712    -7.1256 C.ar    
  19 C19            4.1918     3.1290    -5.8046 C.ar    
  20 C20            5.2136     2.7707    -4.7980 C.2     
  21 N21            6.5474     2.6453    -5.0117 N.pl3   
  22 N22            7.0894     2.2949    -3.7627 N.2     
  23 N23            6.1062     2.2363    -2.9313 N.2     
  24 N24            5.0019     2.5183    -3.5229 N.2     
  25 C25           -2.3624     4.1376     0.0357 C.ar    
  26 C26           -1.2257     2.1364     0.0195 C.ar    
  27 C27           -3.5258     2.0578     0.0295 C.ar    
  28 C28           -3.5620     3.4433     0.0377 C.ar    
  29 C29           -4.8052     1.2614     0.0303 C.3     
  30 C30           -2.3533     5.6445     0.0444 C.3     
  31 C31            0.0642    -2.5693     2.8728 C.3     
  32 H32           -0.8463    -2.4242     0.9258 H       
  33 H33            0.9334    -2.4000     0.9090 H       
  34 H34           -0.8671    -0.1733     1.9659 H       
  35 H35            0.9126    -0.1491     1.9490 H       
  36 H36           -0.8878    -0.3767    -0.5053 H       
  37 H37            0.8920    -0.3525    -0.5222 H       
  38 H38            1.1025     3.1582     0.5224 H       
  39 H39            2.0133     1.6290     0.5054 H       
  40 H40            0.6072     4.3330    -1.5390 H       
  41 H41            1.2852     4.7740    -3.8623 H       
  42 H42            3.4789     1.0922    -3.9027 H       
  43 H43            2.7987     0.6730    -1.5761 H       
  44 H44            0.8467     3.6432    -6.1156 H       
  45 H45            1.5342     4.0745    -8.4350 H       
  46 H46            3.8992     3.9029    -9.0822 H       
  47 H47            5.6012     3.2967    -7.4170 H       
  48 H48            7.0245     2.7702    -5.8469 H       
  49 H49           -4.5046     3.9706     0.0453 H       
  50 H50           -5.1092     1.0632     1.0581 H       
  51 H51           -5.5862     1.8281    -0.4767 H       
  52 H52           -4.6456     0.3170    -0.4901 H       
  53 H53           -2.3558     6.0137    -0.9812 H       
  54 H54           -3.2387     6.0102     0.5644 H       
  55 H55           -1.4588     5.9995     0.5562 H       
  56 H56            0.9540    -2.1966     3.3802 H       
  57 H57           -0.8257    -2.2209     3.3970 H       
  58 H58            0.0790    -3.6592     2.8668 H       
@<TRIPOS>BOND
   1    1    6 1
   2    1    7 1
   3    1   26 1
   4    2    4 1
   5    2   31 1
   6    2   32 1
   7    2   33 1
   8    3   25 ar
   9    3   26 ar
  10    4    6 1
  11    4   34 1
  12    4   35 1
  13    5   26 ar
  14    5   27 ar
  15    6   36 1
  16    6   37 1
  17    7    8 1
  18    7   38 1
  19    7   39 1
  20    8    9 ar
  21    8   13 ar
  22    9   10 ar
  23    9   40 1
  24   10   11 ar
  25   10   41 1
  26   11   12 ar
  27   11   14 1
  28   12   13 ar
  29   12   42 1
  30   13   43 1
  31   14   15 ar
  32   14   19 ar
  33   15   16 ar
  34   15   44 1
  35   16   17 ar
  36   16   45 1
  37   17   18 ar
  38   17   46 1
  39   18   19 ar
  40   18   47 1
  41   19   20 1
  42   20   21 1
  43   20   24 2
  44   21   22 1
  45   21   48 1
  46   22   23 2
  47   23   24 1
  48   25   28 ar
  49   25   30 1
  50   27   28 ar
  51   27   29 1
  52   28   49 1
  53   29   50 1
  54   29   51 1
  55   29   52 1
  56   30   53 1
  57   30   54 1
  58   30   55 1
  59   31   56 1
  60   31   57 1
  61   31   58 1

#	End of record

