#	Name: ASD01883873
#	Creating user name:	WinNT
#	Creation time:	15. 06. 2019 19:47

#	Modifying user name:	WinNT
#	Modification time:	15. 06. 2019 19:47

#	Program:	/corina/corina34_cracker 3.40 0067  02.08.2006

@<TRIPOS>MOLECULE
ASD01883873
  56   59    0    0    0
SMALL
NO_CHARGES


@<TRIPOS>ATOM
   1 C1            -0.2085     1.3284     0.0228 C.ar    
   2 C2            -0.1294    -0.0339     0.0265 C.ar    
   3 C3             1.1208    -0.6643     0.0838 C.ar    
   4 C4             2.2914     0.1142     0.1373 C.ar    
   5 C5             2.1950     1.4947     0.1328 C.ar    
   6 C6             0.9482     2.1016     0.0757 C.ar    
   7 C7             1.2084    -2.1266     0.0884 C.2     
   8 O8             2.2919    -2.6697     0.0299 O.2     
   9 C9            -0.0472    -2.9564     0.1657 C.3     
  10 O10            3.5068    -0.4845     0.1934 O.3     
  11 C11            3.4425     2.3381     0.1904 C.3     
  12 C12            3.9312     2.6234    -1.2311 C.3     
  13 C13            5.1978     3.4797    -1.1727 C.3     
  14 O14            0.8561     3.4551     0.0709 O.3     
  15 C15           -0.4569     4.0158     0.0103 C.3     
  16 C16           -0.3616     5.5198     0.0141 C.ar    
  17 C17           -0.2799     7.5873     1.2192 C.ar    
  18 C18           -0.3672     6.2087     1.2130 C.ar    
  19 C19           -0.2629     6.2081    -1.1811 C.ar    
  20 C20           -0.1749     7.5866    -1.1804 C.ar    
  21 C21           -0.1857     8.2807     0.0211 C.ar    
  22 O22           -0.0997     9.6369     0.0245 O.3     
  23 C23           -1.1383    10.3419    -0.4885 C.ar    
  24 N24           -2.2358     9.7108    -0.8688 N.ar    
  25 C25           -1.0428    11.7331    -0.6064 C.ar    
  26 C26           -2.1224    12.4402    -1.1368 C.ar    
  27 C27           -3.2473    11.7306    -1.5255 C.ar    
  28 C28           -3.2696    10.3573    -1.3729 C.ar    
  29 C29            0.1857    12.4443    -0.1742 C.2     
  30 N30            0.4046    13.7432    -0.2301 N.2     
  31 N31            1.5845    13.9647     0.2383 N.pl3   
  32 N32            2.1202    12.8480     0.5890 N.2     
  33 N33            1.2868    11.8918     0.3546 N.2     
  34 H34           -1.1741     1.8098    -0.0259 H       
  35 H35           -1.0312    -0.6268    -0.0144 H       
  36 H36           -0.9070    -2.3020     0.3089 H       
  37 H37           -0.1687    -3.5186    -0.7602 H       
  38 H38            0.0260    -3.6489     1.0043 H       
  39 H39            3.8999    -0.6585    -0.6728 H       
  40 H40            3.2221     3.2790     0.6945 H       
  41 H41            4.2172     1.8039     0.7405 H       
  42 H42            4.1517     1.6825    -1.7353 H       
  43 H43            3.1566     3.1576    -1.7813 H       
  44 H44            4.9774     4.4206    -0.6685 H       
  45 H45            5.9725     2.9455    -0.6225 H       
  46 H46            5.5460     3.6830    -2.1854 H       
  47 H47           -0.9513     3.6854    -0.9032 H       
  48 H48           -1.0330     3.6861     0.8749 H       
  49 H49           -0.2847     8.1249     2.1559 H       
  50 H50           -0.4402     5.6684     2.1453 H       
  51 H51           -0.2542     5.6674    -2.1159 H       
  52 H52           -0.0975     8.1238    -2.1141 H       
  53 H53           -2.0824    13.5143    -1.2415 H       
  54 H54           -4.1007    12.2467    -1.9399 H       
  55 H55           -4.1476     9.8040    -1.6718 H       
  56 H56            2.0035    14.8363     0.3142 H       
@<TRIPOS>BOND
   1    1    2 ar
   2    1    6 ar
   3    1   34 1
   4    2    3 ar
   5    2   35 1
   6    3    4 ar
   7    3    7 1
   8    4    5 ar
   9    4   10 1
  10    5    6 ar
  11    5   11 1
  12    6   14 1
  13    7    8 2
  14    7    9 1
  15    9   36 1
  16    9   37 1
  17    9   38 1
  18   10   39 1
  19   11   12 1
  20   11   40 1
  21   11   41 1
  22   12   13 1
  23   12   42 1
  24   12   43 1
  25   13   44 1
  26   13   45 1
  27   13   46 1
  28   14   15 1
  29   15   16 1
  30   15   47 1
  31   15   48 1
  32   16   19 ar
  33   16   18 ar
  34   17   18 ar
  35   17   21 ar
  36   17   49 1
  37   18   50 1
  38   19   20 ar
  39   19   51 1
  40   20   21 ar
  41   20   52 1
  42   21   22 1
  43   22   23 1
  44   23   25 ar
  45   23   24 ar
  46   24   28 ar
  47   25   26 ar
  48   25   29 1
  49   26   27 ar
  50   26   53 1
  51   27   28 ar
  52   27   54 1
  53   28   55 1
  54   29   30 2
  55   29   33 1
  56   30   31 1
  57   31   32 1
  58   31   56 1
  59   32   33 2

#	End of record

