#	Name: ASD01901328
#	Creating user name:	WinNT
#	Creation time:	15. 06. 2019 19:53

#	Modifying user name:	WinNT
#	Modification time:	15. 06. 2019 19:53

#	Program:	/corina/corina34_cracker 3.40 0067  02.08.2006

@<TRIPOS>MOLECULE
ASD01901328
  43   46    0    0    0
SMALL
NO_CHARGES


@<TRIPOS>ATOM
   1 C1            -0.0167     1.3772     0.0096 C.ar    
   2 C2             0.0021    -0.0041     0.0020 C.ar    
   3 C3             1.2226    -0.6842    -0.0133 C.ar    
   4 C4             2.4220     0.0332    -0.0209 C.ar    
   5 C5             2.4028     1.4098    -0.0129 C.ar    
   6 C6             1.1869     2.0919     0.0020 C.ar    
   7 C7             1.1688     3.5742     0.0101 C.2     
   8 N8             0.8471     5.5906     1.1960 N.2     
   9 C9             0.8618     4.2804     1.1943 C.2     
  10 C10            1.4545     4.2777    -1.1277 C.2     
  11 N11            1.4287     5.6399    -1.0852 N.pl3   
  12 C12            1.1204     6.2884     0.0831 C.2     
  13 C13            1.6623     6.6011    -2.0318 C.2     
  14 C14            1.4944     7.7982    -1.4311 C.2     
  15 N15            1.1663     7.5919    -0.1522 N.2     
  16 C16            1.6504     9.1432    -2.0927 C.3     
  17 O17            2.0062     8.9609    -3.4646 O.3     
  18 C18            2.1862    10.0830    -4.2097 C.ar    
  19 C19            2.0293    11.3340    -3.6308 C.ar    
  20 C20            2.5328     9.9796    -5.5491 C.ar    
  21 C21            2.7151    11.1218    -6.3043 C.ar    
  22 C22            2.5530    12.3674    -5.7264 C.ar    
  23 C23            2.2128    12.4732    -4.3904 C.ar    
  24 O24           -1.2021     2.0414     0.0188 O.3     
  25 C25           -2.3904     1.2477     0.0202 C.3     
  26 C26            1.2445    -2.1160    -0.0207 C.1     
  27 N27            1.2618    -3.2519    -0.0266 N.1     
  28 H28           -0.9253    -0.5575     0.0083 H       
  29 H29            3.3651    -0.4930    -0.0327 H       
  30 H30            3.3309     1.9621    -0.0184 H       
  31 H31            0.6382     3.7386     2.1014 H       
  32 H32            1.6970     3.7621    -2.0451 H       
  33 H33            1.9307     6.4331    -3.0643 H       
  34 H34            0.7094     9.6898    -2.0309 H       
  35 H35            2.4329     9.7085    -1.5864 H       
  36 H36            1.7635    11.4172    -2.5874 H       
  37 H37            2.6602     9.0069    -6.0008 H       
  38 H38            2.9849    11.0418    -7.3470 H       
  39 H39            2.6963    13.2592    -6.3185 H       
  40 H40            2.0907    13.4473    -3.9403 H       
  41 H41           -2.4114     0.6235    -0.8731 H       
  42 H42           -2.4030     0.6138     0.9068 H       
  43 H43           -3.2633     1.9005     0.0279 H       
@<TRIPOS>BOND
   1    1    2 ar
   2    1    6 ar
   3    1   24 1
   4    2    3 ar
   5    2   28 1
   6    3    4 ar
   7    3   26 1
   8    4    5 ar
   9    4   29 1
  10    5    6 ar
  11    5   30 1
  12    6    7 1
  13    7   10 2
  14    7    9 1
  15    8    9 2
  16    8   12 1
  17    9   31 1
  18   10   11 1
  19   10   32 1
  20   11   13 1
  21   11   12 1
  22   12   15 2
  23   13   14 2
  24   13   33 1
  25   14   15 1
  26   14   16 1
  27   16   17 1
  28   16   34 1
  29   16   35 1
  30   17   18 1
  31   18   20 ar
  32   18   19 ar
  33   19   23 ar
  34   19   36 1
  35   20   21 ar
  36   20   37 1
  37   21   22 ar
  38   21   38 1
  39   22   23 ar
  40   22   39 1
  41   23   40 1
  42   24   25 1
  43   25   41 1
  44   25   42 1
  45   25   43 1
  46   26   27 3

#	End of record

