#	Name: ASD04882307
#	Creating user name:	WinNT
#	Creation time:	15. 06. 2019 20:54

#	Modifying user name:	WinNT
#	Modification time:	15. 06. 2019 20:54

#	Program:	/corina/corina34_cracker 3.40 0067  02.08.2006

@<TRIPOS>MOLECULE
ASD04882307
  67   71    0    0    0
SMALL
NO_CHARGES


@<TRIPOS>ATOM
   1 N1            -0.0169     1.3975     0.0097 N.am    
   2 C2             0.1048     0.0017    -0.0320 C.ar    
   3 C3            -1.0352    -0.8024     0.0493 C.ar    
   4 C4            -0.9160    -2.1870     0.0085 C.ar    
   5 C5             0.3253    -2.7710    -0.1121 C.ar    
   6 C6             1.4695    -1.9725    -0.1945 C.ar    
   7 C7             1.3518    -0.5802    -0.1594 C.ar    
   8 N8            -2.2922    -0.2162     0.1719 N.3     
   9 C9            -3.1597    -0.5901    -0.9538 C.3     
  10 C10           -2.9161    -0.5710     1.4543 C.3     
  11 C11           -4.2572     0.1548     1.5842 C.3     
  12 N12           -5.1247    -0.2191     0.4585 N.3     
  13 C13           -4.5009     0.1358    -0.8239 C.3     
  14 C14            2.7992    -2.5983    -0.3238 C.2     
  15 O15            3.7941    -1.9028    -0.3953 O.2     
  16 C16            0.9240     2.1735    -0.5639 C.2     
  17 C17            0.7480     3.6698    -0.5989 C.3     
  18 O18            1.9124     1.6675    -1.0520 O.2     
  19 N19            2.9113    -3.9408    -0.3626 N.am    
  20 C20           -6.3857     0.3690     0.5814 C.ar    
  21 C21           -6.5076     1.7519     0.6229 C.ar    
  22 C22           -7.5212    -0.4279     0.6568 C.ar    
  23 C23           -8.7662     0.1567     0.7784 C.ar    
  24 C24           -8.8837     1.5340     0.8246 C.ar    
  25 C25           -7.7561     2.3302     0.7446 C.ar    
  26 C26           -7.3943    -1.9287     0.6055 C.3     
  27 C27            4.2317    -4.5623    -0.4910 C.3     
  28 C28            4.0792    -6.0845    -0.5106 C.3     
  29 C29            5.4375    -6.7238    -0.6427 C.2     
  30 C30            6.2943    -7.0026     0.3582 C.2     
  31 N31            6.0351    -7.1380    -1.8024 N.pl3   
  32 C32            7.2392    -7.6513    -1.4702 C.2     
  33 N33            7.3873    -7.5670    -0.1763 N.2     
  34 C34            1.8510     4.4955    -1.2641 C.3     
  35 C35            0.5004     4.3203    -1.9614 C.3     
  36 H36           -0.7804     1.8049     0.4480 H       
  37 H37           -1.7988    -2.8059     0.0720 H       
  38 H38            0.4148    -3.8468    -0.1428 H       
  39 H39            2.2341     0.0393    -0.2228 H       
  40 H40           -2.6818    -0.3058    -1.8913 H       
  41 H41           -3.3265    -1.6672    -0.9423 H       
  42 H42           -3.0801    -1.6479     1.4932 H       
  43 H43           -2.2605    -0.2729     2.2724 H       
  44 H44           -4.7352    -0.1294     2.5217 H       
  45 H45           -4.0904     1.2319     1.5727 H       
  46 H46           -4.3369     1.2127    -0.8628 H       
  47 H47           -5.1565    -0.1623    -1.6420 H       
  48 H48            0.2458     4.1044     0.2654 H       
  49 H49            2.1177    -4.4956    -0.3055 H       
  50 H50           -5.6273     2.3744     0.5604 H       
  51 H51           -9.6494    -0.4622     0.8370 H       
  52 H52           -9.8587     1.9888     0.9190 H       
  53 H53           -7.8513     3.4054     0.7811 H       
  54 H54           -7.2764    -2.3181     1.6167 H       
  55 H55           -8.2910    -2.3539     0.1546 H       
  56 H56           -6.5238    -2.1995     0.0080 H       
  57 H57            4.7001    -4.2320    -1.4181 H       
  58 H58            4.8544    -4.2704     0.3547 H       
  59 H59            3.6109    -6.4148     0.4165 H       
  60 H60            3.4565    -6.3764    -1.3563 H       
  61 H61            6.1302    -6.8059     1.4074 H       
  62 H62            5.6630    -7.0749    -2.6960 H       
  63 H63            7.9589    -8.0658    -2.1605 H       
  64 H64            2.0742     5.4735    -0.8377 H       
  65 H65            2.7039     3.9564    -1.6764 H       
  66 H66            0.4649     3.6661    -2.8325 H       
  67 H67           -0.1649     5.1831    -1.9937 H       
@<TRIPOS>BOND
   1    1    2 1
   2    1   16 am
   3    1   36 1
   4    2    3 ar
   5    2    7 ar
   6    3    4 ar
   7    3    8 1
   8    4    5 ar
   9    4   37 1
  10    5    6 ar
  11    5   38 1
  12    6    7 ar
  13    6   14 1
  14    7   39 1
  15    8    9 1
  16    8   10 1
  17    9   13 1
  18    9   40 1
  19    9   41 1
  20   10   11 1
  21   10   42 1
  22   10   43 1
  23   11   12 1
  24   11   44 1
  25   11   45 1
  26   12   13 1
  27   12   20 1
  28   13   46 1
  29   13   47 1
  30   14   15 2
  31   14   19 am
  32   16   18 2
  33   16   17 1
  34   17   34 1
  35   17   35 1
  36   17   48 1
  37   19   27 1
  38   19   49 1
  39   20   21 ar
  40   20   22 ar
  41   21   25 ar
  42   21   50 1
  43   22   23 ar
  44   22   26 1
  45   23   24 ar
  46   23   51 1
  47   24   25 ar
  48   24   52 1
  49   25   53 1
  50   26   54 1
  51   26   55 1
  52   26   56 1
  53   27   28 1
  54   27   57 1
  55   27   58 1
  56   28   29 1
  57   28   59 1
  58   28   60 1
  59   29   30 2
  60   29   31 1
  61   30   33 1
  62   30   61 1
  63   31   32 1
  64   31   62 1
  65   32   33 2
  66   32   63 1
  67   34   35 1
  68   34   64 1
  69   34   65 1
  70   35   66 1
  71   35   67 1

#	End of record

