#	Name: ASD01917804
#	Creating user name:	WinNT
#	Creation time:	15. 06. 2019 20:10

#	Modifying user name:	WinNT
#	Modification time:	15. 06. 2019 20:10

#	Program:	/corina/corina34_cracker 3.40 0067  02.08.2006

@<TRIPOS>MOLECULE
ASD01917804
  40   43    0    0    0
SMALL
NO_CHARGES


@<TRIPOS>ATOM
   1 C1            -0.3083     1.6164     0.6909 C.2     
   2 C2            -0.1866     0.2753     0.7175 C.2     
   3 C3            -1.3203    -0.6909     0.4843 C.3     
   4 C4            -2.6497     0.0522     0.6664 C.3     
   5 N5            -2.5812     1.3421    -0.0364 N.am    
   6 C6            -1.6052     2.3427     0.4324 C.3     
   7 C7            -3.3897     1.6029    -1.0828 C.2     
   8 O8            -4.1050     0.7278    -1.5313 O.2     
   9 O9             0.9023     2.1347     0.9356 O.3     
  10 C10            1.7522     1.1109     1.1131 C.2     
  11 N11            1.0956    -0.0092     0.9819 N.2     
  12 C12            3.2237     1.2347     1.4139 C.3     
  13 O13            3.9590     1.2700     0.1891 O.3     
  14 C14            5.3102     1.3802     0.2836 C.ar    
  15 C15            6.0862     1.4202    -0.8657 C.ar    
  16 C16            7.4595     1.5322    -0.7669 C.ar    
  17 C17            8.0608     1.6044     0.4760 C.ar    
  18 C18            7.2897     1.5643     1.6230 C.ar    
  19 C19            5.9155     1.4585     1.5295 C.ar    
  20 C20           -3.4069     2.9492    -1.6835 C.2     
  21 C21           -3.8294     3.2728    -2.9572 C.2     
  22 N22           -3.6821     4.5991    -3.1046 N.pl3   
  23 N23           -3.1620     5.1228    -1.9157 N.2     
  24 C24           -2.9996     4.1505    -1.0613 C.2     
  25 H25           -1.2595    -1.0875    -0.5292 H       
  26 H26           -1.2573    -1.5082     1.2027 H       
  27 H27           -3.4612    -0.5459     0.2520 H       
  28 H28           -2.8282     0.2246     1.7278 H       
  29 H29           -1.9610     2.8049     1.3533 H       
  30 H30           -1.4580     3.1044    -0.3332 H       
  31 H31            3.4043     2.1530     1.9727 H       
  32 H32            3.5466     0.3790     2.0070 H       
  33 H33            5.6170     1.3635    -1.8368 H       
  34 H34            8.0640     1.5630    -1.6614 H       
  35 H35            9.1346     1.6919     0.5511 H       
  36 H36            7.7618     1.6201     2.5927 H       
  37 H37            5.3136     1.4273     2.4257 H       
  38 H38           -4.2085     2.5854    -3.6989 H       
  39 H39           -3.8996     5.1085    -3.9009 H       
  40 H40           -2.6148     4.2461    -0.0567 H       
@<TRIPOS>BOND
   1    1    2 2
   2    1    9 1
   3    1    6 1
   4    2    3 1
   5    2   11 1
   6    3    4 1
   7    3   25 1
   8    3   26 1
   9    4    5 1
  10    4   27 1
  11    4   28 1
  12    5    6 1
  13    5    7 am
  14    6   29 1
  15    6   30 1
  16    7    8 2
  17    7   20 1
  18    9   10 1
  19   10   11 2
  20   10   12 1
  21   12   13 1
  22   12   31 1
  23   12   32 1
  24   13   14 1
  25   14   15 ar
  26   14   19 ar
  27   15   16 ar
  28   15   33 1
  29   16   17 ar
  30   16   34 1
  31   17   18 ar
  32   17   35 1
  33   18   19 ar
  34   18   36 1
  35   19   37 1
  36   20   21 2
  37   20   24 1
  38   21   22 1
  39   21   38 1
  40   22   23 1
  41   22   39 1
  42   23   24 2
  43   24   40 1

#	End of record

