#	Name: ASD04560143
#	Creating user name:	WinNT
#	Creation time:	15. 06. 2019 20:49

#	Modifying user name:	WinNT
#	Modification time:	15. 06. 2019 20:49

#	Program:	/corina/corina34_cracker 3.40 0067  02.08.2006

@<TRIPOS>MOLECULE
ASD04560143
  48   51    0    0    0
SMALL
NO_CHARGES


@<TRIPOS>ATOM
   1 C1            -0.0173     1.3666     0.0244 C.ar    
   2 C2             0.0010    -0.0041     0.0240 C.ar    
   3 C3             1.2157    -0.6859     0.0136 C.ar    
   4 C4             2.4151     0.0225     0.0034 C.ar    
   5 C5             2.4031     1.3933     0.0042 C.ar    
   6 C6             1.1852     2.0805     0.0143 C.ar    
   7 C7             1.1690     3.5549     0.0146 C.2     
   8 O8             2.2154     4.1746     0.0062 O.2     
   9 N9            -0.0055     4.2159     0.0243 N.am    
  10 C10           -0.0226     5.6108     0.1376 C.ar    
  11 C11           -0.9920     6.3506    -0.5268 C.ar    
  12 C12            0.9074     7.6331     1.0301 C.ar    
  13 C13            0.9263     6.2566     0.9193 C.ar    
  14 S14            1.2351    -2.4478     0.0137 S.3     
  15 C15           -1.0073     7.7269    -0.4133 C.ar    
  16 C16           -0.0567     8.3693     0.3621 C.ar    
  17 F17           -0.0734     9.7157     0.4718 F       
  18 C18            3.0069    -2.8364    -0.0017 C.3     
  19 C19            3.1932    -4.3318    -0.0030 C.2     
  20 C20            4.5455    -4.9030    -0.0147 C.ar    
  21 O21            2.2258    -5.0636     0.0055 O.2     
  22 C22            5.6649    -4.0617    -0.0246 C.ar    
  23 C23            6.9307    -4.6030    -0.0348 C.ar    
  24 C24            7.1048    -5.9773    -0.0372 C.ar    
  25 C25            6.0080    -6.8250    -0.0296 C.ar    
  26 C26            4.7234    -6.2960    -0.0101 C.ar    
  27 O27            6.2052    -8.1721    -0.0403 O.3     
  28 C28            5.0935    -8.9880     0.3444 C.3     
  29 C29            3.8442    -8.4718    -0.3822 C.3     
  30 O30            3.6354    -7.1078     0.0055 O.3     
  31 H31           -0.9594     1.8947     0.0280 H       
  32 H32           -0.9274    -0.5560     0.0322 H       
  33 H33            3.3553    -0.5088    -0.0047 H       
  34 H34            3.3333     1.9420    -0.0029 H       
  35 H35           -0.8390     3.7249    -0.0472 H       
  36 H36           -1.7331     5.8500    -1.1322 H       
  37 H37            1.6452     8.1357     1.6379 H       
  38 H38            1.6784     5.6828     1.4404 H       
  39 H39           -1.7610     8.3026    -0.9299 H       
  40 H40            3.4641    -2.4125    -0.8957 H       
  41 H41            3.4796    -2.4122     0.8841 H       
  42 H42            5.5353    -2.9895    -0.0247 H       
  43 H43            7.7928    -3.9526    -0.0413 H       
  44 H44            8.1023    -6.3913    -0.0454 H       
  45 H45            5.2820   -10.0235     0.0610 H       
  46 H46            4.9451    -8.9226     1.4223 H       
  47 H47            3.9942    -8.5331    -1.4601 H       
  48 H48            2.9791    -9.0701    -0.0963 H       
@<TRIPOS>BOND
   1    1    2 ar
   2    1    6 ar
   3    1   31 1
   4    2    3 ar
   5    2   32 1
   6    3    4 ar
   7    3   14 1
   8    4    5 ar
   9    4   33 1
  10    5    6 ar
  11    5   34 1
  12    6    7 1
  13    7    8 2
  14    7    9 am
  15    9   10 1
  16    9   35 1
  17   10   11 ar
  18   10   13 ar
  19   11   15 ar
  20   11   36 1
  21   12   13 ar
  22   12   16 ar
  23   12   37 1
  24   13   38 1
  25   14   18 1
  26   15   16 ar
  27   15   39 1
  28   16   17 1
  29   18   19 1
  30   18   40 1
  31   18   41 1
  32   19   20 1
  33   19   21 2
  34   20   22 ar
  35   20   26 ar
  36   22   23 ar
  37   22   42 1
  38   23   24 ar
  39   23   43 1
  40   24   25 ar
  41   24   44 1
  42   25   26 ar
  43   25   27 1
  44   26   30 1
  45   27   28 1
  46   28   29 1
  47   28   45 1
  48   28   46 1
  49   29   30 1
  50   29   47 1
  51   29   48 1

#	End of record

