#	Name: ASD03740161
#	Creating user name:	WinNT
#	Creation time:	15. 06. 2019 20:46

#	Modifying user name:	WinNT
#	Modification time:	15. 06. 2019 20:46

#	Program:	/corina/corina34_cracker 3.40 0067  02.08.2006

@<TRIPOS>MOLECULE
ASD03740161
  65   69    0    0    0
SMALL
NO_CHARGES


@<TRIPOS>ATOM
   1 C1            -0.0701     1.3749     0.9140 C.ar    
   2 C2            -0.0499    -0.0242     0.8710 C.ar    
   3 C3            -1.2041    -0.7323     0.7097 C.ar    
   4 C4            -2.4222    -0.0667     0.5854 C.ar    
   5 C5            -2.4558     1.3411     0.6270 C.ar    
   6 C6            -1.2703     2.0591     0.7978 C.ar    
   7 N7            -3.7157    -0.4878     0.4167 N.pl3   
   8 N8            -4.5576     0.6268     0.3520 N.2     
   9 C9            -3.8598     1.7232     0.4712 C.2     
  10 O10           -4.3490     2.9912     0.4544 O.3     
  11 C11           -4.1476    -1.8843     0.3196 C.3     
  12 C12           -4.4646    -2.4089     1.6963 C.ar    
  13 C13           -5.7452    -2.2897     2.2031 C.ar    
  14 C14           -6.0366    -2.7707     3.4657 C.ar    
  15 C15           -5.0464    -3.3715     4.2223 C.ar    
  16 C16           -3.7649    -3.4905     3.7145 C.ar    
  17 C17           -3.4761    -3.0143     2.4496 C.ar    
  18 C18           -5.7607     3.1399     0.2903 C.3     
  19 C19           -6.1211     4.6268     0.2962 C.3     
  20 C20           -7.6326     4.7860     0.1205 C.3     
  21 Cl21          -5.4115    -3.9754     5.8084 Cl      
  22 N22           -7.9786     6.2136     0.1261 N.3     
  23 C23           -9.3967     6.4150    -0.2235 C.3     
  24 C24           -7.7315     6.8134     1.4546 C.3     
  25 C25           -8.8346     7.8892     1.6144 C.3     
  26 C26          -10.0469     7.1979     0.9366 C.3     
  27 C27          -10.0891     5.0608    -0.3901 C.3     
  28 C28            1.1963     2.1278     1.0907 C.ar    
  29 C29            2.0850     1.7921     2.1159 C.ar    
  30 C30            1.5215     3.1769     0.2339 C.ar    
  31 N31            2.6455     3.8462     0.3897 N.ar    
  32 C32            3.5008     3.5561     1.3509 C.ar    
  33 C33            3.2527     2.5249     2.2387 C.ar    
  34 C34            1.7792     0.6612     3.0639 C.3     
  35 H35            0.8896    -0.5483     0.9662 H       
  36 H36           -1.1741    -1.8114     0.6779 H       
  37 H37           -1.2873     3.1384     0.8312 H       
  38 H38           -5.0374    -1.9467    -0.3068 H       
  39 H39           -3.3497    -2.4815    -0.1220 H       
  40 H40           -6.5181    -1.8203     1.6125 H       
  41 H41           -7.0370    -2.6772     3.8617 H       
  42 H42           -2.9915    -3.9595     4.3047 H       
  43 H43           -2.4758    -3.1071     2.0531 H       
  44 H44           -6.0650     2.6960    -0.6576 H       
  45 H45           -6.2765     2.6378     1.1088 H       
  46 H46           -5.8167     5.0707     1.2441 H       
  47 H47           -5.6053     5.1289    -0.5223 H       
  48 H48           -7.9369     4.3421    -0.8274 H       
  49 H49           -8.1484     4.2839     0.9390 H       
  50 H50           -9.4731     6.9866    -1.1485 H       
  51 H51           -7.8224     6.0579     2.2350 H       
  52 H52           -6.7444     7.2747     1.4851 H       
  53 H53           -9.0367     8.0879     2.6669 H       
  54 H54           -8.5647     8.8060     1.0903 H       
  55 H55          -10.7495     7.9389     0.5554 H       
  56 H56          -10.5409     6.5183     1.6310 H       
  57 H57           -9.9427     4.4647     0.5107 H       
  58 H58          -11.1555     5.2157    -0.5539 H       
  59 H59           -9.6624     4.5374    -1.2456 H       
  60 H60            0.8462     3.4439    -0.5655 H       
  61 H61            4.4110     4.1299     1.4435 H       
  62 H62            3.9606     2.2967     3.0218 H       
  63 H63            2.1834    -0.2683     2.6631 H       
  64 H64            2.2334     0.8668     4.0332 H       
  65 H65            0.6996     0.5672     3.1812 H       
@<TRIPOS>BOND
   1    1    2 ar
   2    1   28 1
   3    1    6 ar
   4    2    3 ar
   5    2   35 1
   6    3    4 ar
   7    3   36 1
   8    4    5 ar
   9    4    7 1
  10    5    6 ar
  11    5    9 1
  12    6   37 1
  13    7    8 1
  14    7   11 1
  15    8    9 2
  16    9   10 1
  17   10   18 1
  18   11   12 1
  19   11   38 1
  20   11   39 1
  21   12   13 ar
  22   12   17 ar
  23   13   14 ar
  24   13   40 1
  25   14   15 ar
  26   14   41 1
  27   15   16 ar
  28   15   21 1
  29   16   17 ar
  30   16   42 1
  31   17   43 1
  32   18   19 1
  33   18   44 1
  34   18   45 1
  35   19   20 1
  36   19   46 1
  37   19   47 1
  38   20   22 1
  39   20   48 1
  40   20   49 1
  41   22   23 1
  42   22   24 1
  43   23   27 1
  44   23   26 1
  45   23   50 1
  46   24   25 1
  47   24   51 1
  48   24   52 1
  49   25   26 1
  50   25   53 1
  51   25   54 1
  52   26   55 1
  53   26   56 1
  54   27   57 1
  55   27   58 1
  56   27   59 1
  57   28   29 ar
  58   28   30 ar
  59   29   34 1
  60   29   33 ar
  61   30   31 ar
  62   30   60 1
  63   31   32 ar
  64   32   33 ar
  65   32   61 1
  66   33   62 1
  67   34   63 1
  68   34   64 1
  69   34   65 1

#	End of record

