#	Name: ASD04490011
#	Creating user name:	WinNT
#	Creation time:	15. 06. 2019 20:49

#	Modifying user name:	WinNT
#	Modification time:	15. 06. 2019 20:49

#	Program:	/corina/corina34_cracker 3.40 0067  02.08.2006

@<TRIPOS>MOLECULE
ASD04490011
  29   30    0    0    0
SMALL
NO_CHARGES


@<TRIPOS>ATOM
   1 C1            -0.0168     1.3909     0.0097 C.ar    
   2 C2             0.0021    -0.0041     0.0020 C.ar    
   3 C3            -1.1845    -0.7121     0.0095 C.ar    
   4 C4            -2.3952    -0.0265     0.0248 C.ar    
   5 C5            -2.4171     1.3754     0.0325 C.ar    
   6 C6            -1.2170     2.0760     0.0306 C.ar    
   7 C7            -3.8128    -0.4423     0.0361 C.2     
   8 C8            -4.5353     0.7114     0.0492 C.2     
   9 O9            -3.7097     1.7643     0.0470 O.3     
  10 C10           -6.0402     0.7908     0.0632 C.3     
  11 C11           -4.3345    -1.8156     0.0333 C.2     
  12 O12           -4.5402    -2.3899     1.0849 O.2     
  13 O13           -4.5851    -2.4391    -1.1355 O.3     
  14 O14            1.1896    -0.6677    -0.0133 O.3     
  15 O15            1.1546     2.0818     0.0022 O.3     
  16 S16            1.6746     2.4038    -1.3915 S.o2    
  17 O17            3.0649     2.8034    -1.2386 O.co2   
  18 O18            1.5393     1.1892    -2.1806 O.co2   
  19 O19            0.8494     3.4849    -1.9077 O.co2   
  20 S20            1.7437    -0.9771     1.3700 S.o2    
  21 O21            3.1397    -1.3444     1.1901 O.co2   
  22 O22            1.5955     0.2341     2.1618 O.co2   
  23 O23            0.9541    -2.0770     1.9018 O.co2   
  24 H24           -1.1722    -1.7920     0.0033 H       
  25 H25           -1.2222     3.1560     0.0368 H       
  26 H26           -6.3937     0.8041     1.0942 H       
  27 H27           -6.3606     1.7016    -0.4426 H       
  28 H28           -6.4546    -0.0758    -0.4519 H       
  29 H29           -4.9275    -3.3421    -1.0868 H       
@<TRIPOS>BOND
   1    1    2 ar
   2    1   15 1
   3    1    6 ar
   4    2    3 ar
   5    2   14 1
   6    3    4 ar
   7    3   24 1
   8    4    5 ar
   9    4    7 1
  10    5    6 ar
  11    5    9 1
  12    6   25 1
  13    7    8 2
  14    7   11 1
  15    8    9 1
  16    8   10 1
  17   10   26 1
  18   10   27 1
  19   10   28 1
  20   11   12 2
  21   11   13 1
  22   13   29 1
  23   14   20 1
  24   15   16 1
  25   16   17 ar
  26   16   18 ar
  27   16   19 ar
  28   20   21 ar
  29   20   22 ar
  30   20   23 ar

#	End of record

