#	Name: ASD01200297
#	Creating user name:	WinNT
#	Creation time:	15. 06. 2019 19:08

#	Modifying user name:	WinNT
#	Modification time:	15. 06. 2019 19:08

#	Program:	/corina/corina34_cracker 3.40 0067  02.08.2006

@<TRIPOS>MOLECULE
ASD01200297
  48   50    0    0    0
SMALL
NO_CHARGES


@<TRIPOS>ATOM
   1 C1             0.9771    -0.9352    -3.5569 C.3     
   2 C2             0.9459    -0.4901    -2.0801 C.3     
   3 C3             2.0289    -1.3709    -1.4069 C.3     
   4 C4             1.8629    -2.7220    -2.1459 C.3     
   5 C5             1.5593    -2.3331    -3.5819 C.2     
   6 O6             1.7469    -3.0127    -4.5623 O.2     
   7 C7             1.7481    -1.5306     0.0886 C.3     
   8 C8             2.9165    -2.2629     0.7515 C.3     
   9 C9             2.7246    -2.2655     2.2463 C.2     
  10 C10            2.9692    -3.6829     0.2494 C.ar    
  11 C11            4.0948    -4.1418    -0.4078 C.ar    
  12 C12            1.8936    -4.5278     0.4515 C.ar    
  13 C13            1.9416    -5.8305    -0.0079 C.ar    
  14 C14            3.0649    -6.2892    -0.6702 C.ar    
  15 C15            4.1432    -5.4458    -0.8684 C.ar    
  16 S16            3.1261    -7.9501    -1.2553 S.o2    
  17 C17            3.1959    -7.7917    -3.0610 C.3     
  18 O18            4.3553    -8.4542    -0.7510 O.2     
  19 O19            1.8840    -8.5099    -0.8515 O.2     
  20 Cl20           5.5541    -6.0209    -1.7006 Cl      
  21 N21            2.7697    -1.1069     2.9335 N.am    
  22 O22            2.5297    -3.3100     2.8308 O.2     
  23 C23            2.7104    -1.1199     4.3262 C.ar    
  24 C24            2.9544    -2.2992     5.0240 C.ar    
  25 N25            2.4267    -0.0071     4.9899 N.ar    
  26 C26            2.3718    -0.0228     6.3104 C.ar    
  27 C27            2.6100    -1.1971     7.0003 C.ar    
  28 N28            2.8978    -2.3073     6.3426 N.ar    
  29 H29           -0.0339    -0.9454    -3.9644 H       
  30 H30            1.6059    -0.2593    -4.1365 H       
  31 H31            1.2023     0.5657    -1.9928 H       
  32 H32           -0.0330    -0.6850    -1.6419 H       
  33 H33            3.0236    -0.9575    -1.5737 H       
  34 H34            2.7858    -3.2997    -2.0949 H       
  35 H35            1.0341    -3.2886    -1.7216 H       
  36 H36            1.6309    -0.5470     0.5434 H       
  37 H37            0.8330    -2.1063     0.2270 H       
  38 H38            3.8495    -1.7558     0.5059 H       
  39 H39            4.9364    -3.4829    -0.5623 H       
  40 H40            1.0157    -4.1699     0.9689 H       
  41 H41            1.1014    -6.4903     0.1508 H       
  42 H42            4.0856    -7.2282    -3.3421 H       
  43 H43            3.2366    -8.7834    -3.5114 H       
  44 H44            2.3076    -7.2682    -3.4144 H       
  45 H45            2.8433    -0.2642     2.4589 H       
  46 H46            3.1894    -3.2064     4.4872 H       
  47 H47            2.1409     0.8831     6.8513 H       
  48 H48            2.5651    -1.2065     8.0793 H       
@<TRIPOS>BOND
   1    1    2 1
   2    1    5 1
   3    1   29 1
   4    1   30 1
   5    2    3 1
   6    2   31 1
   7    2   32 1
   8    3    4 1
   9    3    7 1
  10    3   33 1
  11    4    5 1
  12    4   34 1
  13    4   35 1
  14    5    6 2
  15    7    8 1
  16    7   36 1
  17    7   37 1
  18    8    9 1
  19    8   10 1
  20    8   38 1
  21    9   21 am
  22    9   22 2
  23   10   11 ar
  24   10   12 ar
  25   11   15 ar
  26   11   39 1
  27   12   13 ar
  28   12   40 1
  29   13   14 ar
  30   13   41 1
  31   14   15 ar
  32   14   16 1
  33   15   20 1
  34   16   17 1
  35   16   18 2
  36   16   19 2
  37   17   42 1
  38   17   43 1
  39   17   44 1
  40   21   23 1
  41   21   45 1
  42   23   24 ar
  43   23   25 ar
  44   24   28 ar
  45   24   46 1
  46   25   26 ar
  47   26   27 ar
  48   26   47 1
  49   27   28 ar
  50   27   48 1

#	End of record

