#	Name: ASD02398051
#	Creating user name:	WinNT
#	Creation time:	15. 06. 2019 20:20

#	Modifying user name:	WinNT
#	Modification time:	15. 06. 2019 20:20

#	Program:	/corina/corina34_cracker 3.40 0067  02.08.2006

@<TRIPOS>MOLECULE
ASD02398051
  61   64    0    0    0
SMALL
NO_CHARGES


@<TRIPOS>ATOM
   1 C1            -0.0169     1.3942     0.0097 C.ar    
   2 C2             0.0021    -0.0041     0.0020 C.ar    
   3 C3            -1.1981    -0.7105     0.0102 C.ar    
   4 C4            -2.3984    -0.0288     0.0258 C.ar    
   5 C5            -2.4141     1.3545     0.0333 C.ar    
   6 C6            -1.2286     2.0654     0.0307 C.ar    
   7 C7            -3.6965    -0.7944     0.0341 C.3     
   8 C8            -4.1153    -1.0577     1.4576 C.2     
   9 O9            -3.4300    -0.6641     2.3716 O.2     
  10 O10           -5.2496    -1.7295     1.7101 O.3     
  11 C11            1.2946    -0.7315    -0.0152 C.ar    
  12 C12            2.1654    -0.6364     1.0690 C.ar    
  13 C13            1.6403    -1.5171    -1.1130 C.ar    
  14 C14            2.8442    -2.1923    -1.1234 C.ar    
  15 C15            3.7067    -2.0901    -0.0471 C.ar    
  16 C16            3.3663    -1.3157     1.0477 C.ar    
  17 C17            1.7962     0.2071     2.2620 C.3     
  18 N18            0.8675    -0.5396     3.1211 N.3     
  19 C19            0.4849     0.2534     4.2970 C.3     
  20 O20            1.1487     2.0917     0.0023 O.3     
  21 C21            1.0517     3.5174     0.0109 C.3     
  22 O22           -0.4421    -1.9151     4.9532 O.3     
  23 C23            0.0616    -0.6754     5.4547 C.3     
  24 C24           -1.0595     0.1364     6.1376 C.3     
  25 C25           -1.6273     1.0214     5.0488 C.ar    
  26 C26           -0.7399     1.0887     3.9912 C.ar    
  27 C27           -2.8258     1.7129     4.9881 C.ar    
  28 C28           -3.1365     2.4687     3.8748 C.ar    
  29 C29           -2.2489     2.5360     2.8170 C.ar    
  30 C30           -1.0528     1.8481     2.8761 C.ar    
  31 C31           -5.5906    -1.9466     3.1047 C.3     
  32 C32            5.0194    -2.8300    -0.0641 C.3     
  33 F33            5.1371    -3.5433    -1.2618 F       
  34 F34            6.0722    -1.9143     0.0386 F       
  35 F35            5.0677    -3.7191     1.0149 F       
  36 H36           -1.1897    -1.7904     0.0039 H       
  37 H37           -3.3568     1.8813     0.0456 H       
  38 H38           -1.2472     3.1452     0.0366 H       
  39 H39           -4.4665    -0.2095    -0.4689 H       
  40 H40           -3.5624    -1.7426    -0.4865 H       
  41 H41            0.9674    -1.5979    -1.9538 H       
  42 H42            3.1131    -2.8017    -1.9735 H       
  43 H43            4.0436    -1.2395     1.8855 H       
  44 H44            2.6960     0.4519     2.8263 H       
  45 H45            1.3184     1.1263     1.9232 H       
  46 H46            0.0533    -0.8343     2.6031 H       
  47 H47            1.3120     0.8918     4.6073 H       
  48 H48            0.5228     3.8402     0.9077 H       
  49 H49            2.0522     3.9498     0.0037 H       
  50 H50            0.5059     3.8497    -0.8721 H       
  51 H51           -0.7215    -2.5336     5.6421 H       
  52 H52            0.8930    -0.8452     6.1389 H       
  53 H53           -1.8300    -0.5320     6.5219 H       
  54 H54           -0.6489     0.7445     6.9437 H       
  55 H55           -3.5198     1.6605     5.8139 H       
  56 H56           -4.0720     3.0064     3.8305 H       
  57 H57           -2.4901     3.1268     1.9457 H       
  58 H58           -0.3599     1.9012     2.0493 H       
  59 H59           -4.7981    -2.5180     3.5878 H       
  60 H60           -5.7022    -0.9848     3.6054 H       
  61 H61           -6.5276    -2.4999     3.1677 H       
@<TRIPOS>BOND
   1    1    2 ar
   2    1   20 1
   3    1    6 ar
   4    2    3 ar
   5    2   11 1
   6    3    4 ar
   7    3   36 1
   8    4    5 ar
   9    4    7 1
  10    5    6 ar
  11    5   37 1
  12    6   38 1
  13    7    8 1
  14    7   39 1
  15    7   40 1
  16    8    9 2
  17    8   10 1
  18   10   31 1
  19   11   12 ar
  20   11   13 ar
  21   12   17 1
  22   12   16 ar
  23   13   14 ar
  24   13   41 1
  25   14   15 ar
  26   14   42 1
  27   15   16 ar
  28   15   32 1
  29   16   43 1
  30   17   18 1
  31   17   44 1
  32   17   45 1
  33   18   19 1
  34   18   46 1
  35   19   23 1
  36   19   26 1
  37   19   47 1
  38   20   21 1
  39   21   48 1
  40   21   49 1
  41   21   50 1
  42   22   23 1
  43   22   51 1
  44   23   24 1
  45   23   52 1
  46   24   25 1
  47   24   53 1
  48   24   54 1
  49   25   26 ar
  50   25   27 ar
  51   26   30 ar
  52   27   28 ar
  53   27   55 1
  54   28   29 ar
  55   28   56 1
  56   29   30 ar
  57   29   57 1
  58   30   58 1
  59   31   59 1
  60   31   60 1
  61   31   61 1
  62   32   33 1
  63   32   34 1
  64   32   35 1

#	End of record

