#	Name: ASD01410096
#	Creating user name:	WinNT
#	Creation time:	15. 06. 2019 19:16

#	Modifying user name:	WinNT
#	Modification time:	15. 06. 2019 19:16

#	Program:	/corina/corina34_cracker 3.40 0067  02.08.2006

@<TRIPOS>MOLECULE
ASD01410096
  73   77    0    0    0
SMALL
NO_CHARGES


@<TRIPOS>ATOM
   1 C1            -0.0169     1.3986     0.0097 C.ar    
   2 C2             0.0021    -0.0041     0.0020 C.ar    
   3 C3            -1.1621    -0.7093     0.0093 C.ar    
   4 C4            -2.3912    -0.0347     0.0247 C.ar    
   5 C5            -2.4204     1.3752     0.0330 C.ar    
   6 C6            -1.2306     2.0850     0.0308 C.ar    
   7 C7            -3.7374    -0.4721     0.0348 C.2     
   8 C8            -4.5318     0.6284     0.0485 C.2     
   9 N9            -3.7466     1.7568     0.0476 N.pl3   
  10 C10           -6.0102     0.6156     0.0627 C.ar    
  11 C11           -6.7099     1.4584     0.9278 C.ar    
  12 C12           -8.0909    -0.2423    -0.7755 C.ar    
  13 C13           -6.7117    -0.2351    -0.7930 C.ar    
  14 C14           -4.2054    -1.9046     0.0302 C.3     
  15 C15           -3.6896    -2.6056    -1.2282 C.3     
  16 C16           -4.1647    -4.0600    -1.2328 C.3     
  17 C17           -3.6260    -4.7764     0.0072 C.3     
  18 C18           -4.1418    -4.0754     1.2655 C.3     
  19 C19           -3.6667    -2.6211     1.2702 C.3     
  20 C20            1.2512     2.1499     0.0017 C.2     
  21 O21            2.4257     1.4892    -0.0131 O.3     
  22 C22           -4.2369     3.1372     0.0601 C.3     
  23 C23           -4.3918     3.6024     1.4851 C.2     
  24 N24           -4.8330     4.8496     1.7427 N.am    
  25 O25            1.2376     3.3650     0.0083 O.2     
  26 O26           -4.1193     2.8545     2.4002 O.2     
  27 C27           -8.0890     1.4424     0.9362 C.ar    
  28 C28           -8.7795     0.5924     0.0887 C.ar    
  29 C29           -4.9891     5.3175     3.1267 C.3     
  30 C30           -6.4147     5.8474     3.3102 C.3     
  31 C31           -6.6985     6.9142     2.2502 C.3     
  32 C32           -6.5901     6.2921     0.8561 C.3     
  33 C33           -5.1612     5.7692     0.6448 C.3     
  34 N34           -8.0532     7.4482     2.4438 N.3     
  35 C35           -8.3187     8.5582     1.5190 C.3     
  36 C36           -9.0618     6.3900     2.2995 C.3     
  37 Cl37         -10.5154     0.5782     0.1045 Cl      
  38 H38            0.9465    -0.5278    -0.0102 H       
  39 H39           -1.1391    -1.7891     0.0030 H       
  40 H40           -1.2431     3.1650     0.0372 H       
  41 H41           -6.1724     2.1215     1.5895 H       
  42 H42           -8.6348    -0.9002    -1.4372 H       
  43 H43           -6.1757    -0.8862    -1.4676 H       
  44 H44           -5.2950    -1.9309     0.0400 H       
  45 H45           -4.0733    -2.0952    -2.1115 H       
  46 H46           -2.5999    -2.5793    -1.2380 H       
  47 H47           -5.2543    -4.0863    -1.2230 H       
  48 H48           -3.7972    -4.5594    -2.1293 H       
  49 H49           -3.9645    -5.8125     0.0038 H       
  50 H50           -2.5364    -4.7501    -0.0026 H       
  51 H51           -5.2315    -4.1017     1.2753 H       
  52 H52           -3.7581    -4.5858     2.1489 H       
  53 H53           -2.5771    -2.5947     1.2604 H       
  54 H54           -4.0342    -2.1217     2.1666 H       
  55 H55            3.2307     2.0250    -0.0179 H       
  56 H56           -3.5247     3.7804    -0.4567 H       
  57 H57           -5.2020     3.1846    -0.4444 H       
  58 H58           -8.6315     2.0938     1.6054 H       
  59 H59           -4.8156     4.4896     3.8141 H       
  60 H60           -4.2741     6.1159     3.3253 H       
  61 H61           -7.1245     5.0275     3.2003 H       
  62 H62           -6.5150     6.2855     4.3032 H       
  63 H63           -5.9729     7.7221     2.3447 H       
  64 H64           -7.2983     5.4680     0.7694 H       
  65 H65           -6.8153     7.0467     0.1025 H       
  66 H66           -4.4627     6.6060     0.6407 H       
  67 H67           -5.1033     5.2377    -0.3051 H       
  68 H68           -8.2256     8.2055     0.4918 H       
  69 H69           -9.3282     8.9349     1.6837 H       
  70 H70           -7.5993     9.3579     1.6951 H       
  71 H71           -8.8827     5.6135     3.0431 H       
  72 H72          -10.0556     6.8126     2.4476 H       
  73 H73           -8.9956     5.9588     1.3006 H       
@<TRIPOS>BOND
   1    1    2 ar
   2    1   20 1
   3    1    6 ar
   4    2    3 ar
   5    2   38 1
   6    3    4 ar
   7    3   39 1
   8    4    5 ar
   9    4    7 1
  10    5    6 ar
  11    5    9 1
  12    6   40 1
  13    7    8 2
  14    7   14 1
  15    8    9 1
  16    8   10 1
  17    9   22 1
  18   10   11 ar
  19   10   13 ar
  20   11   27 ar
  21   11   41 1
  22   12   13 ar
  23   12   28 ar
  24   12   42 1
  25   13   43 1
  26   14   15 1
  27   14   19 1
  28   14   44 1
  29   15   16 1
  30   15   45 1
  31   15   46 1
  32   16   17 1
  33   16   47 1
  34   16   48 1
  35   17   18 1
  36   17   49 1
  37   17   50 1
  38   18   19 1
  39   18   51 1
  40   18   52 1
  41   19   53 1
  42   19   54 1
  43   20   21 1
  44   20   25 2
  45   21   55 1
  46   22   23 1
  47   22   56 1
  48   22   57 1
  49   23   24 am
  50   23   26 2
  51   24   29 1
  52   24   33 1
  53   27   28 ar
  54   27   58 1
  55   28   37 1
  56   29   30 1
  57   29   59 1
  58   29   60 1
  59   30   31 1
  60   30   61 1
  61   30   62 1
  62   31   32 1
  63   31   34 1
  64   31   63 1
  65   32   33 1
  66   32   64 1
  67   32   65 1
  68   33   66 1
  69   33   67 1
  70   34   35 1
  71   34   36 1
  72   35   68 1
  73   35   69 1
  74   35   70 1
  75   36   71 1
  76   36   72 1
  77   36   73 1

#	End of record

