#	Name: ASD07932200
#	Creating user name:	WinNT
#	Creation time:	15. 06. 2019 21:14

#	Modifying user name:	WinNT
#	Modification time:	15. 06. 2019 21:14

#	Program:	/corina/corina34_cracker 3.40 0067  02.08.2006

@<TRIPOS>MOLECULE
ASD07932200
  73   75    0    0    0
SMALL
NO_CHARGES


@<TRIPOS>ATOM
   1 Cl1            0.0000     0.0000     0.0000 Cl      
   2 H2             0.0000     1.3700     0.0000 H       
   3 Cl3            5.0000     6.3700     5.0000 Cl      
   4 H4             5.0000     7.7400     5.0000 H       
   5 C5            10.9496    20.9530    13.0849 C.ar    
   6 C6            10.9798    19.5602    13.0813 C.ar    
   7 C7            12.1600    18.8853    12.9993 C.ar    
   8 C8            13.3654    19.5996    12.9166 C.ar    
   9 C9            13.3407    21.0188    12.9193 C.ar    
  10 C10           12.0986    21.6812    13.0061 C.ar    
  11 C11           14.6039    18.9356    12.8312 C.ar    
  12 C12           15.7377    19.6912    12.7538 C.ar    
  13 C13           15.6448    21.0913    12.7611 C.ar    
  14 N14           14.4801    21.7046    12.8420 N.ar    
  15 C15           16.8845    21.8997    12.6769 C.2     
  16 N16           16.8131    23.2455    12.6827 N.am    
  17 O17           17.9651    21.3489    12.6028 O.2     
  18 C18           18.0383    24.0444    12.5996 C.3     
  19 C19           17.7951    25.4180    13.2282 C.3     
  20 C20           19.0747    26.2523    13.1413 C.3     
  21 C21           19.4716    26.4261    11.6740 C.3     
  22 C22           19.7148    25.0525    11.0454 C.3     
  23 C23           18.4353    24.2181    11.1322 C.3     
  24 O24           17.4244    25.2557    14.5987 O.3     
  25 C25           14.6757    17.4303    12.8257 C.3     
  26 N26           14.4667    16.9251    14.1892 N.3     
  27 C27           14.1643    15.4882    14.1775 C.3     
  28 C28           13.8105    15.0284    15.5936 C.3     
  29 C29           14.9904    15.3131    16.5271 C.3     
  30 C30           15.3159    16.8087    16.4840 C.3     
  31 C31           15.6260    17.2169    15.0420 C.3     
  32 C32           14.6256    14.9176    17.9348 C.ar    
  33 F33           12.0482    23.0313    13.0106 F       
  34 C34           15.3662    13.9559    18.5964 C.ar    
  35 C35           13.5540    15.5204    18.5665 C.ar    
  36 C36           13.2194    15.1576    19.8577 C.ar    
  37 C37           13.9562    14.1915    20.5171 C.ar    
  38 C38           15.0316    13.5930    19.8876 C.ar    
  39 C39           13.5918    13.7963    21.9250 C.3     
  40 F40           12.6752    12.7400    21.8904 F       
  41 F41           14.7434    13.3922    22.6088 F       
  42 F42           13.0185    14.8899    22.5827 F       
  43 H43           10.0000    21.4637    13.1467 H       
  44 H44           10.0541    19.0076    13.1449 H       
  45 H45           12.1684    17.8054    12.9983 H       
  46 H46           16.7038    19.2129    12.6875 H       
  47 H47           15.9505    23.6852    12.7420 H       
  48 H48           18.8403    23.5366    13.1353 H       
  49 H49           16.9931    25.9259    12.6925 H       
  50 H50           18.9014    27.2309    13.5891 H       
  51 H51           19.8767    25.7445    13.6770 H       
  52 H52           18.6696    26.9339    11.1383 H       
  53 H53           20.3832    27.0205    11.6121 H       
  54 H54           19.9976    25.1763    10.0000 H       
  55 H55           20.5168    24.5446    11.5811 H       
  56 H56           18.6085    23.2396    10.6844 H       
  57 H57           17.6333    24.7260    10.5965 H       
  58 H58           17.2544    26.0877    15.0613 H       
  59 H59           13.9030    17.0320    12.1682 H       
  60 H60           15.6556    17.1146    12.4676 H       
  61 H61           13.3209    15.3000    13.5132 H       
  62 H62           15.0353    14.9367    13.8236 H       
  63 H63           12.9312    15.5697    15.9429 H       
  64 H64           13.6013    13.9587    15.5873 H       
  65 H65           15.8593    14.7417    16.2007 H       
  66 H66           14.4603    17.3780    16.8473 H       
  67 H67           16.1822    17.0109    17.1138 H       
  68 H68           16.4902    16.6572    14.6840 H       
  69 H69           15.8443    18.2842    15.0056 H       
  70 H70           16.2059    13.4878    18.1043 H       
  71 H71           12.9784    16.2752    18.0514 H       
  72 H72           12.3826    15.6291    20.3515 H       
  73 H73           15.6072    12.8383    20.4028 H       
@<TRIPOS>BOND
   1    1    2 1
   2    3    4 1
   3    5    6 ar
   4    5   10 ar
   5    5   43 1
   6    6    7 ar
   7    6   44 1
   8    7    8 ar
   9    7   45 1
  10    8    9 ar
  11    8   11 ar
  12    9   10 ar
  13    9   14 ar
  14   10   33 1
  15   11   12 ar
  16   11   25 1
  17   12   13 ar
  18   12   46 1
  19   13   14 ar
  20   13   15 1
  21   15   16 am
  22   15   17 2
  23   16   18 1
  24   16   47 1
  25   18   19 1
  26   18   23 1
  27   18   48 1
  28   19   20 1
  29   19   24 1
  30   19   49 1
  31   20   21 1
  32   20   50 1
  33   20   51 1
  34   21   22 1
  35   21   52 1
  36   21   53 1
  37   22   23 1
  38   22   54 1
  39   22   55 1
  40   23   56 1
  41   23   57 1
  42   24   58 1
  43   25   26 1
  44   25   59 1
  45   25   60 1
  46   26   27 1
  47   26   31 1
  48   27   28 1
  49   27   61 1
  50   27   62 1
  51   28   29 1
  52   28   63 1
  53   28   64 1
  54   29   30 1
  55   29   32 1
  56   29   65 1
  57   30   31 1
  58   30   66 1
  59   30   67 1
  60   31   68 1
  61   31   69 1
  62   32   34 ar
  63   32   35 ar
  64   34   38 ar
  65   34   70 1
  66   35   36 ar
  67   35   71 1
  68   36   37 ar
  69   36   72 1
  70   37   38 ar
  71   37   39 1
  72   38   73 1
  73   39   40 1
  74   39   41 1
  75   39   42 1

#	End of record

