#	Name: ASD02508241
#	Creating user name:	WinNT
#	Creation time:	15. 06. 2019 20:24

#	Modifying user name:	WinNT
#	Modification time:	15. 06. 2019 20:24

#	Program:	/corina/corina34_cracker 3.40 0067  02.08.2006

@<TRIPOS>MOLECULE
ASD02508241
  39   42    0    0    0
SMALL
NO_CHARGES


@<TRIPOS>ATOM
   1 C1             0.2507     1.1225     0.3849 C.ar    
   2 C2             0.1797    -0.2699     0.3528 C.ar    
   3 C3            -1.0547    -0.8932     0.2578 C.ar    
   4 C4            -2.2068    -0.1340     0.1953 C.ar    
   5 C5            -2.1353     1.2479     0.2268 C.ar    
   6 C6            -0.9101     1.8778     0.3269 C.ar    
   7 S7            -3.7750    -0.9284     0.0745 S.o2    
   8 N8            -4.3171    -1.1803     1.6188 N.am    
   9 C9            -4.5220    -0.0970     2.4706 C.ar    
  10 N10            1.6027     1.4505     0.4821 N.am    
  11 C11            2.2987     0.2967     0.5062 C.2     
  12 O12            1.4491    -0.7396     0.4288 O.3     
  13 O13           -4.6593     0.0167    -0.5121 O.2     
  14 O14           -3.5319    -2.2138    -0.4802 O.2     
  15 C15            2.1638     2.8023     0.5463 C.3     
  16 O16            3.5089     0.2081     0.5856 O.2     
  17 C17           -4.2406    -0.2117     3.8493 C.ar    
  18 C18           -4.9960     1.0983     1.9740 C.ar    
  19 C19           -5.2032     2.1868     2.8163 C.ar    
  20 C20           -4.9451     2.1024     4.1503 C.ar    
  21 C21           -4.4562     0.9029     4.6962 C.ar    
  22 C22           -4.1815     0.7870     6.0699 C.ar    
  23 C23           -3.7092    -0.3894     6.5654 C.ar    
  24 C24           -3.4926    -1.4837     5.7305 C.ar    
  25 C25           -3.7521    -1.4086     4.3959 C.ar    
  26 H26           -1.1155    -1.9712     0.2322 H       
  27 H27           -3.0403     1.8352     0.1769 H       
  28 H28           -0.8562     2.9562     0.3518 H       
  29 H29           -4.4920    -2.0821     1.9304 H       
  30 H30            2.2341     3.1174     1.5874 H       
  31 H31            3.1573     2.8050     0.0979 H       
  32 H32            1.5174     3.4903     0.0013 H       
  33 H33           -5.2086     1.1914     0.9192 H       
  34 H34           -5.5745     3.1137     2.4048 H       
  35 H35           -5.1121     2.9577     4.7882 H       
  36 H36           -4.3439     1.6272     6.7287 H       
  37 H37           -3.4989    -0.4758     7.6212 H       
  38 H38           -3.1166    -2.4058     6.1484 H       
  39 H39           -3.5795    -2.2647     3.7604 H       
@<TRIPOS>BOND
   1    1    2 ar
   2    1   10 1
   3    1    6 ar
   4    2    3 ar
   5    2   12 1
   6    3    4 ar
   7    3   26 1
   8    4    5 ar
   9    4    7 1
  10    5    6 ar
  11    5   27 1
  12    6   28 1
  13    7    8 am
  14    7   13 2
  15    7   14 2
  16    8    9 1
  17    8   29 1
  18    9   17 ar
  19    9   18 ar
  20   10   11 am
  21   10   15 1
  22   11   12 1
  23   11   16 2
  24   15   30 1
  25   15   31 1
  26   15   32 1
  27   17   21 ar
  28   17   25 ar
  29   18   19 ar
  30   18   33 1
  31   19   20 ar
  32   19   34 1
  33   20   21 ar
  34   20   35 1
  35   21   22 ar
  36   22   23 ar
  37   22   36 1
  38   23   24 ar
  39   23   37 1
  40   24   25 ar
  41   24   38 1
  42   25   39 1

#	End of record

