#	Name: ASD01884490
#	Creating user name:	WinNT
#	Creation time:	15. 06. 2019 19:48

#	Modifying user name:	WinNT
#	Modification time:	15. 06. 2019 19:48

#	Program:	/corina/corina34_cracker 3.40 0067  02.08.2006

@<TRIPOS>MOLECULE
ASD01884490
  38   40    0    0    0
SMALL
NO_CHARGES


@<TRIPOS>ATOM
   1 C1            -0.0164     1.3576     0.0095 C.2     
   2 C2             0.0021    -0.0041     0.0020 C.2     
   3 C3             1.2439    -0.6751    -0.0134 C.2     
   4 C4             2.4023     0.0464    -0.0206 C.2     
   5 N5             2.3700     1.4023    -0.0130 N.am    
   6 C6             1.1986     2.0652     0.0017 C.2     
   7 C7             3.6266     2.1554    -0.0205 C.3     
   8 O8             1.1911     3.2857     0.0083 O.2     
   9 C9             4.0445     2.4212    -1.4438 C.ar    
  10 C10            3.6206     3.5702    -2.0852 C.ar    
  11 C11            4.0036     3.8145    -3.3905 C.ar    
  12 C12            4.8112     2.9090    -4.0553 C.ar    
  13 C13            5.2350     1.7593    -3.4129 C.ar    
  14 C14            4.8561     1.5188    -2.1056 C.ar    
  15 Cl15           5.2921     3.2150    -5.6951 Cl      
  16 C16            1.2896    -2.1585    -0.0214 C.ar    
  17 C17            0.8129    -2.8886     1.0721 C.ar    
  18 C18            1.8023    -2.8432    -1.1196 C.ar    
  19 N19            1.8443    -4.1605    -1.1308 N.ar    
  20 C20            1.4066    -4.8801    -0.1106 C.ar    
  21 C21            0.8764    -4.2683     1.0187 C.ar    
  22 O22            1.4709    -6.2341    -0.1702 O.3     
  23 C23            2.0201    -6.8058    -1.3592 C.3     
  24 H24           -0.9563     1.8895     0.0169 H       
  25 H25           -0.9217    -0.5635     0.0082 H       
  26 H26            3.3527    -0.4666    -0.0321 H       
  27 H27            3.4855     3.1027     0.4997 H       
  28 H28            4.4004     1.5760     0.4831 H       
  29 H29            2.9899     4.2768    -1.5663 H       
  30 H30            3.6721     4.7120    -3.8916 H       
  31 H31            5.8655     1.0521    -3.9313 H       
  32 H32            5.1869     0.6214    -1.6040 H       
  33 H33            0.4055    -2.3867     1.9372 H       
  34 H34            2.1690    -2.2894    -1.9713 H       
  35 H35            0.5215    -4.8638     1.8468 H       
  36 H36            1.4212    -6.5029    -2.2181 H       
  37 H37            3.0448    -6.4579    -1.4898 H       
  38 H38            2.0131    -7.8926    -1.2765 H       
@<TRIPOS>BOND
   1    1    2 2
   2    1    6 1
   3    1   24 1
   4    2    3 1
   5    2   25 1
   6    3    4 2
   7    3   16 1
   8    4    5 1
   9    4   26 1
  10    5    6 am
  11    5    7 1
  12    6    8 2
  13    7    9 1
  14    7   27 1
  15    7   28 1
  16    9   10 ar
  17    9   14 ar
  18   10   11 ar
  19   10   29 1
  20   11   12 ar
  21   11   30 1
  22   12   13 ar
  23   12   15 1
  24   13   14 ar
  25   13   31 1
  26   14   32 1
  27   16   17 ar
  28   16   18 ar
  29   17   21 ar
  30   17   33 1
  31   18   19 ar
  32   18   34 1
  33   19   20 ar
  34   20   21 ar
  35   20   22 1
  36   21   35 1
  37   22   23 1
  38   23   36 1
  39   23   37 1
  40   23   38 1

#	End of record

