#	Name: ASD07930072
#	Creating user name:	WinNT
#	Creation time:	15. 06. 2019 21:11

#	Modifying user name:	WinNT
#	Modification time:	15. 06. 2019 21:11

#	Program:	/corina/corina34_cracker 3.40 0067  02.08.2006

@<TRIPOS>MOLECULE
ASD07930072
  56   60    0    0    0
SMALL
NO_CHARGES


@<TRIPOS>ATOM
   1 C1            -0.0180     1.4754     0.0102 C.2     
   2 C2             0.0021    -0.0041     0.0020 C.2     
   3 N3             1.1814     2.1509     0.0023 N.am    
   4 N4             1.1194    -0.6400     0.4288 N.am    
   5 C5             2.2493     0.1650     0.9143 C.3     
   6 C6             2.4261     1.3707    -0.0208 C.3     
   7 C7            -1.2008     2.1485     0.0195 C.2     
   8 C8            -1.2247     3.5486     0.0291 C.2     
   9 C9            -0.0458     4.2425     0.0303 C.2     
  10 C10            1.2139     3.4948     0.0143 C.2     
  11 O11           -0.9642    -0.6358    -0.3794 O.2     
  12 O12            2.2807     4.0852     0.0118 O.2     
  13 C13            1.2002    -2.1026     0.4064 C.3     
  14 C14            1.7676    -2.5615    -0.9383 C.3     
  15 O15            3.1161    -2.1063    -1.0666 O.3     
  16 C16            3.7701    -2.4311    -2.2115 C.ar    
  17 C17            5.0946    -2.0186    -2.4061 C.ar    
  18 C18            5.7569    -2.3580    -3.5864 C.ar    
  19 C19            5.1055    -3.0960    -4.5528 C.ar    
  20 C20            3.7968    -3.5017    -4.3568 C.ar    
  21 C21            3.1321    -3.1766    -3.1894 C.ar    
  22 O22            5.3287    -0.1208    -0.7560 O.3     
  23 N23            6.1255     0.3002     0.0499 N.2     
  24 C24            7.2009    -0.4338     0.1005 C.2     
  25 C25            7.0227    -1.4743    -0.8334 C.2     
  26 C26            5.7863    -1.2281    -1.3675 C.2     
  27 C27            8.4012    -0.2130     0.9846 C.3     
  28 F28            8.1517     0.8567     1.8511 F       
  29 F29            8.6496    -1.3697     1.7312 F       
  30 F30            9.5166     0.0791     0.1922 F       
  31 C31            0.4239     6.4402     1.0348 C.2     
  32 N32            0.2552     7.6848     0.6804 N.2     
  33 C33           -0.3161     7.7283    -0.5326 C.2     
  34 C34           -0.5113     6.4636    -0.9513 C.2     
  35 N35           -0.0431     5.6402     0.0404 N.pl3   
  36 C36           -0.6774     8.9771    -1.2948 C.3     
  37 H37            2.0426     0.5136     1.9261 H       
  38 H38            3.1572    -0.4381     0.9099 H       
  39 H39            2.6247     1.0242    -1.0350 H       
  40 H40            3.2543     1.9881     0.3270 H       
  41 H41           -2.1297     1.5976     0.0190 H       
  42 H42           -2.1668     4.0767     0.0353 H       
  43 H43            1.8522    -2.4428     1.2110 H       
  44 H44            0.2042    -2.5236     0.5432 H       
  45 H45            1.7451    -3.6500    -0.9897 H       
  46 H46            1.1658    -2.1470    -1.7471 H       
  47 H47            6.7780    -2.0430    -3.7433 H       
  48 H48            5.6187    -3.3580    -5.4663 H       
  49 H49            3.2937    -4.0790    -5.1184 H       
  50 H50            2.1125    -3.5007    -3.0412 H       
  51 H51            7.7030    -2.2783    -1.0722 H       
  52 H52            0.8650     6.1025     1.9610 H       
  53 H53           -0.9521     6.1566    -1.8883 H       
  54 H54            0.1651     9.2797    -1.9167 H       
  55 H55           -1.5430     8.7793    -1.9270 H       
  56 H56           -0.9156     9.7756    -0.5921 H       
@<TRIPOS>BOND
   1    1    2 1
   2    1    3 1
   3    1    7 2
   4    2    4 am
   5    2   11 2
   6    3    6 1
   7    3   10 am
   8    4    5 1
   9    4   13 1
  10    5    6 1
  11    5   37 1
  12    5   38 1
  13    6   39 1
  14    6   40 1
  15    7    8 1
  16    7   41 1
  17    8    9 2
  18    8   42 1
  19    9   10 1
  20    9   35 1
  21   10   12 2
  22   13   14 1
  23   13   43 1
  24   13   44 1
  25   14   15 1
  26   14   45 1
  27   14   46 1
  28   15   16 1
  29   16   17 ar
  30   16   21 ar
  31   17   18 ar
  32   17   26 1
  33   18   19 ar
  34   18   47 1
  35   19   20 ar
  36   19   48 1
  37   20   21 ar
  38   20   49 1
  39   21   50 1
  40   22   23 1
  41   22   26 1
  42   23   24 2
  43   24   25 1
  44   24   27 1
  45   25   26 2
  46   25   51 1
  47   27   28 1
  48   27   29 1
  49   27   30 1
  50   31   32 2
  51   31   35 1
  52   31   52 1
  53   32   33 1
  54   33   34 2
  55   33   36 1
  56   34   35 1
  57   34   53 1
  58   36   54 1
  59   36   55 1
  60   36   56 1

#	End of record

