#	Name: ASD03090985
#	Creating user name:	WinNT
#	Creation time:	15. 06. 2019 20:29

#	Modifying user name:	WinNT
#	Modification time:	15. 06. 2019 20:29

#	Program:	/corina/corina34_cracker 3.40 0067  02.08.2006

@<TRIPOS>MOLECULE
ASD03090985
  49   52    0    0    0
SMALL
NO_CHARGES


@<TRIPOS>ATOM
   1 N1            -0.2967     0.7329    -0.1923 N.am    
   2 C2            -0.2698    -0.6120    -0.1078 C.2     
   3 O3             0.7950    -1.1942     0.0057 O.2     
   4 N4            -1.4101    -1.3069    -0.1485 N.2     
   5 S5             0.0068    -3.6379     0.0986 S.3     
   6 C6            -1.3835    -2.6350    -0.0651 C.2     
   7 N7            -2.4463    -3.4783    -0.0910 N.pl3   
   8 C8            -2.1791    -4.8095     0.0106 C.2     
   9 C9            -0.9043    -5.1575     0.1255 C.2     
  10 O10           -7.6362    -1.6155    -0.5952 O.3     
  11 C11           -7.8907    -0.2635    -0.1987 C.3     
  12 C12           -6.7935     0.6272    -0.7969 C.3     
  13 O13           -5.5296     0.1787    -0.2958 O.3     
  14 C14           -5.3029    -1.1633    -0.3199 C.ar    
  15 C15           -6.3552    -2.0600    -0.4675 C.ar    
  16 C16           -4.0057    -1.6352    -0.1959 C.ar    
  17 C17           -3.7587    -3.0009    -0.2162 C.ar    
  18 C18           -4.8115    -3.8938    -0.3609 C.ar    
  19 C19           -6.1047    -3.4239    -0.4861 C.ar    
  20 F20           -6.8111     0.5248    -2.1921 F       
  21 F21           -7.0064     1.9570    -0.4180 F       
  22 F22           -9.1410     0.1414    -0.6784 F       
  23 F23           -7.8667    -0.1687     1.1969 F       
  24 C24           -0.3477    -6.5521     0.2527 C.3     
  25 C25            0.9537     1.4949    -0.1476 C.3     
  26 C26            1.6678     1.2258     1.1784 C.3     
  27 C27            1.8540     1.0659    -1.3080 C.3     
  28 C28            0.6452     2.9887    -0.2668 C.3     
  29 C29           -0.1897     3.6284     0.8444 C.3     
  30 C30            1.3070     3.9294     0.7422 C.3     
  31 H31           -1.1438     1.1960    -0.2867 H       
  32 H32           -2.9678    -5.5473    -0.0017 H       
  33 H33           -3.1869    -0.9401    -0.0827 H       
  34 H34           -4.6196    -4.9565    -0.3758 H       
  35 H35           -6.9224    -4.1204    -0.5983 H       
  36 H36            0.7385    -6.5042     0.3302 H       
  37 H37           -0.7551    -7.0258     1.1459 H       
  38 H38           -0.6240    -7.1351    -0.6259 H       
  39 H39            1.8876     0.1615     1.2633 H       
  40 H40            2.5982     1.7927     1.2117 H       
  41 H41            1.0264     1.5313     2.0051 H       
  42 H42            1.3452     1.2576    -2.2527 H       
  43 H43            2.7844     1.6329    -1.2747 H       
  44 H44            2.0738     0.0017    -1.2231 H       
  45 H45            0.5010     3.3595    -1.2816 H       
  46 H46           -0.8828     4.4204     0.5607 H       
  47 H47           -0.5191     2.9851     1.6603 H       
  48 H48            1.9622     3.4840     1.4909 H       
  49 H49            1.5985     4.9193     0.3912 H       
@<TRIPOS>BOND
   1    1    2 am
   2    1   25 1
   3    1   31 1
   4    2    3 2
   5    2    4 1
   6    4    6 2
   7    5    6 1
   8    5    9 1
   9    6    7 1
  10    7    8 1
  11    7   17 1
  12    8    9 2
  13    8   32 1
  14    9   24 1
  15   10   11 1
  16   10   15 1
  17   11   12 1
  18   11   22 1
  19   11   23 1
  20   12   13 1
  21   12   20 1
  22   12   21 1
  23   13   14 1
  24   14   15 ar
  25   14   16 ar
  26   15   19 ar
  27   16   17 ar
  28   16   33 1
  29   17   18 ar
  30   18   19 ar
  31   18   34 1
  32   19   35 1
  33   24   36 1
  34   24   37 1
  35   24   38 1
  36   25   26 1
  37   25   27 1
  38   25   28 1
  39   26   39 1
  40   26   40 1
  41   26   41 1
  42   27   42 1
  43   27   43 1
  44   27   44 1
  45   28   29 1
  46   28   30 1
  47   28   45 1
  48   29   30 1
  49   29   46 1
  50   29   47 1
  51   30   48 1
  52   30   49 1

#	End of record

