#	Name: ASD01910510
#	Creating user name:	WinNT
#	Creation time:	15. 06. 2019 19:56

#	Modifying user name:	WinNT
#	Modification time:	15. 06. 2019 19:56

#	Program:	/corina/corina34_cracker 3.40 0067  02.08.2006

@<TRIPOS>MOLECULE
ASD01910510
  45   48    0    0    0
SMALL
NO_CHARGES


@<TRIPOS>ATOM
   1 O1             0.3059     1.7963     1.1509 O.3     
   2 C2             0.3362     0.4712     1.3720 C.2     
   3 N3             1.6046     0.1009     1.2740 N.2     
   4 C4             2.2855     1.2226     0.9972 C.2     
   5 N5             1.4297     2.2005     0.9397 N.2     
   6 C6            -0.8118    -0.3965     1.6654 C.2     
   7 C7            -2.1171    -0.0009     1.7638 C.2     
   8 C8            -2.8765    -1.1410     2.0537 C.2     
   9 C9            -2.0298    -2.1944     2.1251 C.2     
  10 N10           -0.7674    -1.7531     1.8844 N.pl3   
  11 C11            4.0575     1.8697    -0.6154 C.3     
  12 C12            3.7743     1.3308     0.7904 C.3     
  13 C13            4.3659     2.2878     1.8279 C.3     
  14 C14            5.8823     2.3730     1.6396 C.3     
  15 C15            6.1893     2.9236     0.2435 C.3     
  16 N16            5.5032     2.0917    -0.7544 N.am    
  17 C17            6.1869     1.5427    -1.7779 C.2     
  18 C18            7.6130     1.8738    -1.9755 C.ar    
  19 O19            5.6302     0.7749    -2.5385 O.2     
  20 C20            8.0228     3.2079    -2.0199 C.ar    
  21 C21            9.3549     3.5113    -2.2041 C.ar    
  22 C22           10.2868     2.4948    -2.3456 C.ar    
  23 C23            9.8852     1.1682    -2.3028 C.ar    
  24 C24            8.5569     0.8536    -2.1129 C.ar    
  25 F25           11.5910     2.7977    -2.5263 F       
  26 C26            8.1219    -0.5885    -2.0661 C.3     
  27 H27           -2.4925     1.0043     1.6412 H       
  28 H28           -3.9467    -1.1739     2.1951 H       
  29 H29           -2.3111    -3.2160     2.3342 H       
  30 H30            0.0322    -2.3023     1.8750 H       
  31 H31            3.7261     1.1443    -1.3584 H       
  32 H32            3.5277     2.8113    -0.7594 H       
  33 H33            4.2295     0.3466     0.9013 H       
  34 H34            3.9280     3.2777     1.7002 H       
  35 H35            4.1445     1.9194     2.8296 H       
  36 H36            6.3058     3.0365     2.3936 H       
  37 H37            6.3181     1.3792     1.7427 H       
  38 H38            5.8334     3.9512     0.1695 H       
  39 H39            7.2646     2.8936     0.0671 H       
  40 H40            7.2975     4.0006    -1.9105 H       
  41 H41            9.6730     4.5429    -2.2386 H       
  42 H42           10.6152     0.3801    -2.4143 H       
  43 H43            8.0739    -0.9201    -1.0289 H       
  44 H44            7.1379    -0.6863    -2.5247 H       
  45 H45            8.8392    -1.2022    -2.6110 H       
@<TRIPOS>BOND
   1    1    2 1
   2    1    5 1
   3    2    3 2
   4    2    6 1
   5    3    4 1
   6    4    5 2
   7    4   12 1
   8    6    7 2
   9    6   10 1
  10    7    8 1
  11    7   27 1
  12    8    9 2
  13    8   28 1
  14    9   10 1
  15    9   29 1
  16   10   30 1
  17   11   12 1
  18   11   16 1
  19   11   31 1
  20   11   32 1
  21   12   13 1
  22   12   33 1
  23   13   14 1
  24   13   34 1
  25   13   35 1
  26   14   15 1
  27   14   36 1
  28   14   37 1
  29   15   16 1
  30   15   38 1
  31   15   39 1
  32   16   17 am
  33   17   18 1
  34   17   19 2
  35   18   20 ar
  36   18   24 ar
  37   20   21 ar
  38   20   40 1
  39   21   22 ar
  40   21   41 1
  41   22   23 ar
  42   22   25 1
  43   23   24 ar
  44   23   42 1
  45   24   26 1
  46   26   43 1
  47   26   44 1
  48   26   45 1

#	End of record

