#	Name: ASD07480054
#	Creating user name:	WinNT
#	Creation time:	15. 06. 2019 21:11

#	Modifying user name:	WinNT
#	Modification time:	15. 06. 2019 21:11

#	Program:	/corina/corina34_cracker 3.40 0067  02.08.2006

@<TRIPOS>MOLECULE
ASD07480054
  48   51    0    0    0
SMALL
NO_CHARGES


@<TRIPOS>ATOM
   1 C1            -0.0167     1.3786     0.0096 C.ar    
   2 C2            -1.2219     2.0566     0.0190 C.ar    
   3 C3             0.0021    -0.0041     0.0020 C.ar    
   4 C4             3.4766    -4.5043    -4.8577 C.ar    
   5 C5            -0.4701    -6.0004    -4.3028 C.ar    
   6 C6            -2.4110     1.3542     0.0208 C.ar    
   7 C7            -1.1836    -0.7123     0.0095 C.ar    
   8 C8            -1.7495    -6.4863    -4.1230 C.ar    
   9 C9             2.1933    -4.9975    -4.6815 C.ar    
  10 C10            3.8141    -3.3044    -4.2549 C.ar    
  11 C11           -1.0015    -4.0748    -2.9513 C.ar    
  12 C12           -5.1162    -2.2913    -0.3764 C.2     
  13 C13           -0.0896    -4.7921    -3.7178 C.ar    
  14 C14           -2.2966    -4.5625    -2.7811 C.ar    
  15 C15           -2.3955    -0.0343     0.0131 C.ar    
  16 C16           -2.6644    -5.7770    -3.3673 C.ar    
  17 C17            1.2865    -4.2735    -3.9129 C.ar    
  18 C18           -5.6920    -1.2990     0.4438 C.2     
  19 C19            2.8618    -2.6329    -3.4941 C.ar    
  20 C20           -3.8302    -1.9320    -0.6222 C.2     
  21 C21           -3.2719    -3.8070    -1.9679 C.2     
  22 C22           -7.0771    -1.2945     0.9564 C.2     
  23 N23            1.6413    -3.1237    -3.3525 N.ar    
  24 N24           -4.7782    -0.3755     0.6739 N.2     
  25 N25           -3.6000    -0.7498     0.0154 N.pl3   
  26 N26            3.1930    -1.4278    -2.8858 N.pl3   
  27 N27           -7.5042    -0.2807     1.7350 N.am    
  28 N28           -2.9101    -2.6447    -1.3894 N.am    
  29 O29           -4.4007    -4.2339    -1.8206 O.2     
  30 O30           -7.8320    -2.2054     0.6760 O.2     
  31 Cl31          -4.2758    -6.3879    -3.1586 Cl      
  32 H32            0.9118     1.9302     0.0037 H       
  33 H33           -1.2332     3.1365     0.0253 H       
  34 H34            0.9449    -0.5307    -0.0102 H       
  35 H35            4.1994    -5.0467    -5.4491 H       
  36 H36            0.2400    -6.5593    -4.8943 H       
  37 H37           -3.3520     1.8843     0.0285 H       
  38 H38           -1.1683    -1.7921     0.0036 H       
  39 H39           -2.0371    -7.4241    -4.5748 H       
  40 H40            1.9003    -5.9325    -5.1356 H       
  41 H41            4.8061    -2.8943    -4.3732 H       
  42 H42           -0.7104    -3.1392    -2.4971 H       
  43 H43           -5.6089    -3.1809    -0.7401 H       
  44 H44            4.0839    -1.0593    -2.9927 H       
  45 H45            2.5333    -0.9553    -2.3544 H       
  46 H46           -6.9019     0.4460     1.9586 H       
  47 H47           -8.4139    -0.2778     2.0716 H       
  48 H48           -2.0095    -2.3041    -1.5069 H       
@<TRIPOS>BOND
   1    1    3 ar
   2    1   32 1
   3    1    2 ar
   4    2    6 ar
   5    2   33 1
   6    3    7 ar
   7    3   34 1
   8    4    9 ar
   9    4   35 1
  10    4   10 ar
  11    5    8 ar
  12    5   36 1
  13    5   13 ar
  14    6   15 ar
  15    6   37 1
  16    7   38 1
  17    7   15 ar
  18    8   39 1
  19    8   16 ar
  20    9   40 1
  21    9   17 ar
  22   10   41 1
  23   10   19 ar
  24   11   13 ar
  25   11   14 ar
  26   11   42 1
  27   12   43 1
  28   12   18 1
  29   12   20 2
  30   13   17 1
  31   14   21 1
  32   14   16 ar
  33   15   25 1
  34   16   31 1
  35   17   23 ar
  36   18   22 1
  37   18   24 2
  38   19   23 ar
  39   19   26 1
  40   20   28 1
  41   20   25 1
  42   21   29 2
  43   21   28 am
  44   22   30 2
  45   22   27 am
  46   24   25 1
  47   26   44 1
  48   26   45 1
  49   27   46 1
  50   27   47 1
  51   28   48 1

#	End of record

