#	Name: ASD08710059
#	Creating user name:	WinNT
#	Creation time:	15. 06. 2019 21:19

#	Modifying user name:	WinNT
#	Modification time:	15. 06. 2019 21:19

#	Program:	/corina/corina34_cracker 3.40 0067  02.08.2006

@<TRIPOS>MOLECULE
ASD08710059
  43   45    0    0    0
SMALL
NO_CHARGES


@<TRIPOS>ATOM
   1 C1            -0.3349     1.7438     0.6671 C.ar    
   2 C2            -0.2210     0.3741     0.5189 C.ar    
   3 C3             0.8011     2.5244     0.7727 C.ar    
   4 C4             2.0509     1.9353     0.7300 C.ar    
   5 C5             2.1648     0.5656     0.5822 C.ar    
   6 C6             1.0289    -0.2149     0.4762 C.ar    
   7 S7             1.1740    -1.9609     0.2884 S.o2    
   8 O8            -0.0283    -2.3993    -0.3293 O.2     
   9 O9             2.4623    -2.1995    -0.2618 O.2     
  10 N10            1.1856    -2.6181     1.8083 N.am    
  11 C11           -0.0697    -3.0161     2.4607 C.3     
  12 C12            2.4519    -2.8195     2.5265 C.3     
  13 C13            2.5534    -4.2938     2.9369 C.3     
  14 N14            1.2976    -4.6866     3.5915 N.am    
  15 C15            0.0371    -4.4900     2.8712 C.3     
  16 C16            1.3071    -5.2224     4.8282 C.2     
  17 C17            2.5918    -5.5399     5.4860 C.ar    
  18 O18            0.2590    -5.4445     5.4024 O.2     
  19 C19            2.7847    -5.2571     6.8390 C.ar    
  20 N20            3.9289    -5.5397     7.4258 N.ar    
  21 C21            4.9306    -6.0959     6.7689 C.ar    
  22 C22            4.8177    -6.4072     5.4240 C.ar    
  23 C23            3.6336    -6.1348     4.7634 C.ar    
  24 C24            0.6769     4.0176     0.9338 C.3     
  25 Cl25           6.4125    -6.4420     7.6043 Cl      
  26 F26            0.6152     4.3362     2.2947 F       
  27 F27            1.7884     4.6427     0.3584 F       
  28 F28           -0.4880     4.4600     0.2980 F       
  29 H29           -1.3112     2.2045     0.6960 H       
  30 H30           -1.1085    -0.2358     0.4368 H       
  31 H31            2.9384     2.5453     0.8118 H       
  32 H32            3.1413     0.1055     0.5481 H       
  33 H33           -0.2333    -2.4009     3.3455 H       
  34 H34           -0.8996    -2.8893     1.7654 H       
  35 H35            3.2870    -2.5629     1.8747 H       
  36 H36            2.4720    -2.1899     3.4161 H       
  37 H37            2.7128    -4.9097     2.0518 H       
  38 H38            3.3840    -4.4240     3.6307 H       
  39 H39           -0.7995    -4.7453     3.5215 H       
  40 H40            0.0203    -5.1228     1.9838 H       
  41 H41            1.9885    -4.8022     7.4096 H       
  42 H42            5.6442    -6.8616     4.8977 H       
  43 H43            3.5181    -6.3674     3.7151 H       
@<TRIPOS>BOND
   1    1    2 ar
   2    1    3 ar
   3    1   29 1
   4    2    6 ar
   5    2   30 1
   6    3    4 ar
   7    3   24 1
   8    4    5 ar
   9    4   31 1
  10    5    6 ar
  11    5   32 1
  12    6    7 1
  13    7    8 2
  14    7    9 2
  15    7   10 am
  16   10   11 1
  17   10   12 1
  18   11   15 1
  19   11   33 1
  20   11   34 1
  21   12   13 1
  22   12   35 1
  23   12   36 1
  24   13   14 1
  25   13   37 1
  26   13   38 1
  27   14   15 1
  28   14   16 am
  29   15   39 1
  30   15   40 1
  31   16   17 1
  32   16   18 2
  33   17   19 ar
  34   17   23 ar
  35   19   20 ar
  36   19   41 1
  37   20   21 ar
  38   21   22 ar
  39   21   25 1
  40   22   23 ar
  41   22   42 1
  42   23   43 1
  43   24   26 1
  44   24   27 1
  45   24   28 1

#	End of record

