#	Name: ASD01510082
#	Creating user name:	WinNT
#	Creation time:	15. 06. 2019 19:21

#	Modifying user name:	WinNT
#	Modification time:	15. 06. 2019 19:21

#	Program:	/corina/corina34_cracker 3.40 0067  02.08.2006

@<TRIPOS>MOLECULE
ASD01510082
  59   63    0    0    0
SMALL
NO_CHARGES


@<TRIPOS>ATOM
   1 C1            -0.0167     1.3772     0.0096 C.ar    
   2 C2             0.0021    -0.0041     0.0020 C.ar    
   3 C3             1.2080    -0.6802    -0.0131 C.ar    
   4 C4             2.3980     0.0239    -0.0207 C.ar    
   5 C5             2.3846     1.4052    -0.0127 C.ar    
   6 C6             1.1759     2.0860     0.0020 C.ar    
   7 C7             1.2256    -2.1871    -0.0209 C.3     
   8 C8             2.6738    -2.6802    -0.0375 C.3     
   9 C9             0.5225    -2.7117     1.2326 C.3     
  10 C10            0.5402    -4.2416     1.2248 C.3     
  11 C11            1.9885    -4.7347     1.2082 C.3     
  12 C12            2.6916    -4.2101    -0.0453 C.3     
  13 C13            1.9642    -4.7222    -1.2902 C.3     
  14 C14            0.5159    -4.2290    -1.2736 C.3     
  15 C15            0.4981    -2.6992    -1.2657 C.3     
  16 C16           -0.1872    -4.7537    -0.0201 C.3     
  17 O17            1.1601     3.4449     0.0090 O.3     
  18 C18            2.4257     4.1084     0.0005 C.3     
  19 C19            2.2109     5.6000     0.0101 C.2     
  20 N20            3.2701     6.4334     0.0044 N.am    
  21 O21            1.0849     6.0505     0.0229 O.2     
  22 C22            3.0829     7.8922     0.0135 C.3     
  23 C23            3.9349     8.4853     1.1407 C.3     
  24 N24            5.3257     8.0385     0.9859 N.3     
  25 C25            5.4344     6.5794     1.1170 C.3     
  26 C26            4.6439     5.9082    -0.0050 C.3     
  27 C27            6.2072     8.7202     1.9430 C.3     
  28 H28           -0.9589     1.9049     0.0169 H       
  29 H29           -0.9260    -0.5563     0.0083 H       
  30 H30            3.3387    -0.5065    -0.0325 H       
  31 H31            3.3144     1.9547    -0.0183 H       
  32 H32            3.1747    -2.3064    -0.9305 H       
  33 H33            3.1920    -2.3154     0.8494 H       
  34 H34            1.0407    -2.3469     2.1195 H       
  35 H35           -0.5093    -2.3604     1.2444 H       
  36 H36            0.0394    -4.6154     2.1178 H       
  37 H37            2.5067    -4.3699     2.0950 H       
  38 H38            2.0012    -5.8247     1.2026 H       
  39 H39            3.7233    -4.5614    -0.0572 H       
  40 H40            2.4651    -4.3484    -2.1832 H       
  41 H41            1.9768    -5.8121    -1.2958 H       
  42 H42           -0.0023    -4.5939    -2.1604 H       
  43 H43           -0.5336    -2.3478    -1.2539 H       
  44 H44            0.9990    -2.3254    -2.1587 H       
  45 H45           -0.1745    -5.8436    -0.0257 H       
  46 H46           -1.2189    -4.4024    -0.0082 H       
  47 H47            2.9944     3.8176     0.8838 H       
  48 H48            2.9777     3.8266    -0.8961 H       
  49 H49            3.4001     8.3081    -0.9429 H       
  50 H50            2.0324     8.1255     0.1870 H       
  51 H51            3.8950     9.5735     1.0927 H       
  52 H52            3.5497     8.1489     2.1033 H       
  53 H53            6.4819     6.2854     1.0519 H       
  54 H54            5.0284     6.2695     2.0799 H       
  55 H55            4.6249     4.8304     0.1563 H       
  56 H56            5.1140     6.1297    -0.9631 H       
  57 H57            5.8802     8.4994     2.9591 H       
  58 H58            7.2307     8.3710     1.8067 H       
  59 H59            6.1649     9.7961     1.7734 H       
@<TRIPOS>BOND
   1    1    2 ar
   2    1    6 ar
   3    1   28 1
   4    2    3 ar
   5    2   29 1
   6    3    4 ar
   7    3    7 1
   8    4    5 ar
   9    4   30 1
  10    5    6 ar
  11    5   31 1
  12    6   17 1
  13    7    8 1
  14    7   15 1
  15    7    9 1
  16    8   12 1
  17    8   32 1
  18    8   33 1
  19    9   10 1
  20    9   34 1
  21    9   35 1
  22   10   16 1
  23   10   11 1
  24   10   36 1
  25   11   12 1
  26   11   37 1
  27   11   38 1
  28   12   13 1
  29   12   39 1
  30   13   14 1
  31   13   40 1
  32   13   41 1
  33   14   15 1
  34   14   16 1
  35   14   42 1
  36   15   43 1
  37   15   44 1
  38   16   45 1
  39   16   46 1
  40   17   18 1
  41   18   19 1
  42   18   47 1
  43   18   48 1
  44   19   20 am
  45   19   21 2
  46   20   22 1
  47   20   26 1
  48   22   23 1
  49   22   49 1
  50   22   50 1
  51   23   24 1
  52   23   51 1
  53   23   52 1
  54   24   25 1
  55   24   27 1
  56   25   26 1
  57   25   53 1
  58   25   54 1
  59   26   55 1
  60   26   56 1
  61   27   57 1
  62   27   58 1
  63   27   59 1

#	End of record

