#	Name: ASD07930760
#	Creating user name:	WinNT
#	Creation time:	15. 06. 2019 21:13

#	Modifying user name:	WinNT
#	Modification time:	15. 06. 2019 21:13

#	Program:	/corina/corina34_cracker 3.40 0067  02.08.2006

@<TRIPOS>MOLECULE
ASD07930760
  47   50    0    0    0
SMALL
NO_CHARGES


@<TRIPOS>ATOM
   1 C1            -0.0178     1.4608     0.0101 C.3     
   2 N2             0.8031    -0.4153    -2.1619 N.2     
   3 N3            -0.8796    -1.7833    -1.2911 N.pl3   
   4 C4            -0.9005    -2.8248    -0.2586 C.3     
   5 C5            -1.2102    -2.1834     1.1010 C.3     
   6 S6             0.0275    -0.8859     1.4156 S.o2    
   7 N7             0.0021    -0.0041     0.0020 N.am    
   8 C8             0.0002    -0.7257    -1.1832 C.2     
   9 C9             0.4646    -3.5132    -0.1997 C.3     
  10 O10           -0.4323     0.0192     2.4099 O.2     
  11 O11            1.3354    -1.4387     1.4687 O.2     
  12 C12           -1.9634    -3.8404    -0.5898 C.2     
  13 C13           -1.9980    -4.5833    -1.7011 C.2     
  14 S14           -3.3410    -4.2324     0.4306 S.3     
  15 C15           -3.9132    -5.4126    -0.7412 C.2     
  16 C16           -3.0681    -5.4492    -1.7919 C.2     
  17 Cl17          -0.7861    -4.4662    -2.9386 Cl      
  18 C18           -5.1286    -6.2394    -0.5952 C.ar    
  19 C19           -5.4728    -7.1360    -1.5930 C.ar    
  20 C20           -6.6280    -7.9196    -1.4507 C.ar    
  21 C21           -7.4220    -7.7772    -0.2847 C.ar    
  22 C22           -7.0476    -6.8581     0.7114 C.ar    
  23 C23           -5.9230    -6.1131     0.5587 C.ar    
  24 N24           -6.9865    -8.7940    -2.3978 N.ar    
  25 C25           -8.0644    -9.5299    -2.2733 C.ar    
  26 C26           -8.8875    -9.4391    -1.1535 C.ar    
  27 C27           -8.5788    -8.5661    -0.1485 C.ar    
  28 C28           -8.4223   -10.4988    -3.3706 C.3     
  29 H29            1.0048     1.8381     0.0023 H       
  30 H30           -0.5450     1.8219    -0.8730 H       
  31 H31           -0.5280     1.8123     0.9069 H       
  32 H32            0.7883    -0.9307    -2.9835 H       
  33 H33           -1.4804    -1.8399    -2.0505 H       
  34 H34           -2.2071    -1.7432     1.0811 H       
  35 H35           -1.1573    -2.9394     1.8845 H       
  36 H36            1.2322    -2.7780     0.0418 H       
  37 H37            0.4485    -4.2871     0.5677 H       
  38 H38            0.6857    -3.9650    -1.1667 H       
  39 H39           -3.2183    -6.1032    -2.6381 H       
  40 H40           -4.8565    -7.2312    -2.4747 H       
  41 H41           -7.6517    -6.7484     1.5999 H       
  42 H42           -5.6403    -5.4091     1.3273 H       
  43 H43           -9.7691   -10.0586    -1.0793 H       
  44 H44           -9.2066    -8.4833     0.7264 H       
  45 H45           -7.9558   -11.4633    -3.1700 H       
  46 H46           -9.5048   -10.6199    -3.4096 H       
  47 H47           -8.0650   -10.1141    -4.3258 H       
@<TRIPOS>BOND
   1    1    7 1
   2    1   29 1
   3    1   30 1
   4    1   31 1
   5    2    8 2
   6    2   32 1
   7    3    4 1
   8    3    8 1
   9    3   33 1
  10    4    5 1
  11    4    9 1
  12    4   12 1
  13    5    6 1
  14    5   34 1
  15    5   35 1
  16    6    7 am
  17    6   10 2
  18    6   11 2
  19    7    8 1
  20    9   36 1
  21    9   37 1
  22    9   38 1
  23   12   14 1
  24   12   13 2
  25   13   17 1
  26   13   16 1
  27   14   15 1
  28   15   16 2
  29   15   18 1
  30   16   39 1
  31   18   19 ar
  32   18   23 ar
  33   19   20 ar
  34   19   40 1
  35   20   21 ar
  36   20   24 ar
  37   21   22 ar
  38   21   27 ar
  39   22   23 ar
  40   22   41 1
  41   23   42 1
  42   24   25 ar
  43   25   26 ar
  44   25   28 1
  45   26   27 ar
  46   26   43 1
  47   27   44 1
  48   28   45 1
  49   28   46 1
  50   28   47 1

#	End of record

