#	Name: ASD05380239
#	Creating user name:	WinNT
#	Creation time:	15. 06. 2019 20:59

#	Modifying user name:	WinNT
#	Modification time:	15. 06. 2019 20:59

#	Program:	/corina/corina34_cracker 3.40 0067  02.08.2006

@<TRIPOS>MOLECULE
ASD05380239
  73   75    0    0    0
SMALL
NO_CHARGES


@<TRIPOS>ATOM
   1 C1             0.6838    -1.4166    -1.5172 C.ar    
   2 C2             1.6059    -1.8564    -2.4575 C.ar    
   3 C3             2.9447    -1.9416    -2.1467 C.ar    
   4 C4             3.3826    -1.5817    -0.8709 C.ar    
   5 C5             2.4416    -1.1345     0.0835 C.ar    
   6 C6             1.0916    -1.0558    -0.2513 C.ar    
   7 N7             4.6918    -1.6506    -0.5223 N.2     
   8 C8             5.0987    -1.3163     0.6644 C.2     
   9 N9             4.2642    -0.8756     1.6445 N.am    
  10 C10            2.9345    -0.7635     1.4179 C.2     
  11 C11            6.5702    -1.4221     0.9721 C.3     
  12 C12            5.1921    -1.5316     3.7770 C.ar    
  13 C13            4.7856    -0.5354     2.8991 C.ar    
  14 C14            5.7063    -1.1929     5.0132 C.ar    
  15 C15            5.8161     0.1366     5.3774 C.ar    
  16 C16            5.4126     1.1310     4.5052 C.ar    
  17 C17            4.8976     0.7988     3.2675 C.ar    
  18 O18            2.1763    -0.3703     2.2853 O.2     
  19 C19            7.2625    -2.2381    -0.1214 C.3     
  20 C20            0.0845    -0.5789     0.7634 C.3     
  21 C21            8.7304    -2.4515     0.2536 C.3     
  22 C22            9.4227    -3.2675    -0.8399 C.3     
  23 N23           10.8320    -3.4724    -0.4799 N.3     
  24 C24           10.9524    -4.3173     0.7158 C.3     
  25 C25           12.3680    -4.1982     1.2841 C.3     
  26 C26           11.5854    -4.0420    -1.6050 C.3     
  27 C27           11.7887    -2.9699    -2.6775 C.3     
  28 N28            7.1558    -0.0803     1.0248 N.am    
  29 O29            7.4731     2.0215     0.0626 O.3     
  30 C30            7.3774     2.8377    -1.1344 C.3     
  31 C31            5.9101     2.9659    -1.5483 C.3     
  32 C32            7.9507     4.2277    -0.8510 C.3     
  33 C33            8.1707     2.1797    -2.2652 C.3     
  34 C34            7.0129     0.7589    -0.0201 C.2     
  35 O35            6.4686     0.3760    -1.0368 O.2     
  36 H36           -0.3613    -1.3525    -1.7816 H       
  37 H37            1.2688    -2.1356    -3.4449 H       
  38 H38            3.6526    -2.2855    -2.8864 H       
  39 H39            6.7055    -1.9157     1.9345 H       
  40 H40            5.1021    -2.5703     3.4951 H       
  41 H41            6.0226    -1.9672     5.6965 H       
  42 H42            6.2178     0.3989     6.3449 H       
  43 H43            5.4992     2.1684     4.7926 H       
  44 H44            4.5826     1.5758     2.5868 H       
  45 H45            6.7687    -3.2047    -0.2211 H       
  46 H46            7.2037    -1.7007    -1.0679 H       
  47 H47            0.0477     0.5104     0.7545 H       
  48 H48           -0.8989    -0.9778     0.5144 H       
  49 H49            0.3763    -0.9245     1.7551 H       
  50 H50            9.2242    -1.4849     0.3533 H       
  51 H51            8.7891    -2.9889     1.2001 H       
  52 H52            8.9289    -4.2341    -0.9396 H       
  53 H53            9.3639    -2.7301    -1.7864 H       
  54 H54           10.2314    -3.9911     1.4653 H       
  55 H55           10.7544    -5.3554     0.4486 H       
  56 H56           12.5415    -3.1744     1.6154 H       
  57 H57           12.4785    -4.8773     2.1294 H       
  58 H58           13.0924    -4.4580     0.5122 H       
  59 H59           12.5557    -4.3920    -1.2526 H       
  60 H60           11.0293    -4.8785    -2.0283 H       
  61 H61           10.8195    -2.5851    -2.9948 H       
  62 H62           12.3867    -2.1556    -2.2685 H       
  63 H63           12.3046    -3.4053    -3.5333 H       
  64 H64            7.6464     0.2042     1.8118 H       
  65 H65            5.3223     3.3155    -0.6995 H       
  66 H66            5.8247     3.6794    -2.3678 H       
  67 H67            5.5378     1.9941    -1.8724 H       
  68 H68            9.0166     4.1448    -0.6388 H       
  69 H69            7.8021     4.8664    -1.7217 H       
  70 H70            7.4417     4.6621     0.0094 H       
  71 H71            7.7623     1.1895    -2.4670 H       
  72 H72            8.0988     2.7925    -3.1637 H       
  73 H73            9.2161     2.0884    -1.9703 H       
@<TRIPOS>BOND
   1    1    2 ar
   2    1    6 ar
   3    1   36 1
   4    2    3 ar
   5    2   37 1
   6    3    4 ar
   7    3   38 1
   8    4    5 ar
   9    4    7 1
  10    5    6 ar
  11    5   10 1
  12    6   20 1
  13    7    8 2
  14    8    9 1
  15    8   11 1
  16    9   10 am
  17    9   13 1
  18   10   18 2
  19   11   19 1
  20   11   28 1
  21   11   39 1
  22   12   13 ar
  23   12   14 ar
  24   12   40 1
  25   13   17 ar
  26   14   15 ar
  27   14   41 1
  28   15   16 ar
  29   15   42 1
  30   16   17 ar
  31   16   43 1
  32   17   44 1
  33   19   21 1
  34   19   45 1
  35   19   46 1
  36   20   47 1
  37   20   48 1
  38   20   49 1
  39   21   22 1
  40   21   50 1
  41   21   51 1
  42   22   23 1
  43   22   52 1
  44   22   53 1
  45   23   24 1
  46   23   26 1
  47   24   25 1
  48   24   54 1
  49   24   55 1
  50   25   56 1
  51   25   57 1
  52   25   58 1
  53   26   27 1
  54   26   59 1
  55   26   60 1
  56   27   61 1
  57   27   62 1
  58   27   63 1
  59   28   34 am
  60   28   64 1
  61   29   30 1
  62   29   34 1
  63   30   31 1
  64   30   32 1
  65   30   33 1
  66   31   65 1
  67   31   66 1
  68   31   67 1
  69   32   68 1
  70   32   69 1
  71   32   70 1
  72   33   71 1
  73   33   72 1
  74   33   73 1
  75   34   35 2

#	End of record

