#	Name: ASD03092823
#	Creating user name:	WinNT
#	Creation time:	15. 06. 2019 20:33

#	Modifying user name:	WinNT
#	Modification time:	15. 06. 2019 20:33

#	Program:	/corina/corina34_cracker 3.40 0067  02.08.2006

@<TRIPOS>MOLECULE
ASD03092823
  57   60    0    0    0
SMALL
NO_CHARGES


@<TRIPOS>ATOM
   1 C1            -0.6297     1.2154    -0.1997 C.3     
   2 O2            -0.1955    -0.1371    -0.0440 O.3     
   3 C3             0.4611    -0.6983    -1.0917 C.ar    
   4 C4             0.6875     0.0404    -2.2435 C.ar    
   5 C5             1.3537    -0.5244    -3.3106 C.ar    
   6 C6             1.8042    -1.8448    -3.2373 C.ar    
   7 C7             1.5802    -2.5936    -2.0825 C.ar    
   8 C8             0.9139    -2.0200    -1.0062 C.ar    
   9 C9             0.6774    -2.8086     0.2277 C.ar    
  10 C10            1.0029    -2.2738     1.4727 C.ar    
  11 C11            0.7807    -3.0120     2.6175 C.ar    
  12 C12            0.2360    -4.2805     2.5307 C.ar    
  13 C13           -0.0890    -4.8164     1.2976 C.ar    
  14 C14            0.1236    -4.0849     0.1467 C.ar    
  15 S15           -0.0443    -5.2175     3.9963 S.o2    
  16 N16           -1.5748    -4.8624     4.5198 N.am    
  17 O17           -0.0616    -6.5827     3.6026 O.2     
  18 O18            0.8450    -4.7028     4.9779 O.2     
  19 C19            2.5170    -2.4475    -4.3828 C.2     
  20 S20            2.0517    -2.3190    -6.0782 S.3     
  21 C21            3.4417    -3.3013    -6.5311 C.2     
  22 N22            4.1078    -3.6323    -5.4591 N.2     
  23 C23            3.6592    -3.1999    -4.3157 C.2     
  24 C24            4.3456    -3.5100    -3.0104 C.3     
  25 C25            3.7961    -3.6891    -7.9047 C.2     
  26 O26            3.1890    -3.2152    -8.8463 O.2     
  27 N27            4.7935    -4.5696    -8.1202 N.am    
  28 C28            5.2734    -4.8384    -9.4826 C.3     
  29 C29            5.2264    -6.3490    -9.7329 C.3     
  30 C30            6.0141    -7.0685    -8.6356 C.3     
  31 C31            5.3734    -6.7841    -7.2752 C.3     
  32 C32            5.4258    -5.2742    -6.9967 C.3     
  33 H33            0.2337     1.8555    -0.3811 H       
  34 H34           -1.3152     1.2820    -1.0445 H       
  35 H35           -1.1387     1.5404     0.7077 H       
  36 H36            0.3405     1.0613    -2.3050 H       
  37 H37            1.5274     0.0552    -4.2051 H       
  38 H38            1.9272    -3.6146    -2.0230 H       
  39 H39            1.4285    -1.2836     1.5416 H       
  40 H40            1.0329    -2.5986     3.5828 H       
  41 H41           -0.5140    -5.8073     1.2356 H       
  42 H42           -0.1350    -4.5023    -0.8152 H       
  43 H43           -2.0882    -5.5277     5.0043 H       
  44 H44           -1.9578    -3.9892     4.3420 H       
  45 H45            3.8798    -4.3831    -2.5534 H       
  46 H46            5.4002    -3.7152    -3.1942 H       
  47 H47            4.2532    -2.6559    -2.3395 H       
  48 H48            4.6333    -4.3286   -10.2027 H       
  49 H49            6.2985    -4.4826    -9.5858 H       
  50 H50            4.1906    -6.6880    -9.7189 H       
  51 H51            5.6693    -6.5709   -10.7038 H       
  52 H52            6.0030    -8.1419    -8.8250 H       
  53 H53            7.0438    -6.7109    -8.6339 H       
  54 H54            4.3362    -7.1190    -7.2845 H       
  55 H55            5.9209    -7.3157    -6.4970 H       
  56 H56            6.4631    -4.9533    -6.9013 H       
  57 H57            4.8863    -5.0522    -6.0759 H       
@<TRIPOS>BOND
   1    1    2 1
   2    1   33 1
   3    1   34 1
   4    1   35 1
   5    2    3 1
   6    3    8 ar
   7    3    4 ar
   8    4    5 ar
   9    4   36 1
  10    5    6 ar
  11    5   37 1
  12    6    7 ar
  13    6   19 1
  14    7    8 ar
  15    7   38 1
  16    8    9 1
  17    9   14 ar
  18    9   10 ar
  19   10   11 ar
  20   10   39 1
  21   11   12 ar
  22   11   40 1
  23   12   13 ar
  24   12   15 1
  25   13   14 ar
  26   13   41 1
  27   14   42 1
  28   15   16 am
  29   15   17 2
  30   15   18 2
  31   16   43 1
  32   16   44 1
  33   19   23 2
  34   19   20 1
  35   20   21 1
  36   21   22 2
  37   21   25 1
  38   22   23 1
  39   23   24 1
  40   24   45 1
  41   24   46 1
  42   24   47 1
  43   25   26 2
  44   25   27 am
  45   27   32 1
  46   27   28 1
  47   28   29 1
  48   28   48 1
  49   28   49 1
  50   29   30 1
  51   29   50 1
  52   29   51 1
  53   30   31 1
  54   30   52 1
  55   30   53 1
  56   31   32 1
  57   31   54 1
  58   31   55 1
  59   32   56 1
  60   32   57 1

#	End of record

