#	Name: ASD08710092
#	Creating user name:	WinNT
#	Creation time:	15. 06. 2019 21:19

#	Modifying user name:	WinNT
#	Modification time:	15. 06. 2019 21:19

#	Program:	/corina/corina34_cracker 3.40 0067  02.08.2006

@<TRIPOS>MOLECULE
ASD08710092
  54   55    0    0    0
SMALL
NO_CHARGES


@<TRIPOS>ATOM
   1 N1            -0.0208     1.4767    -0.1290 N.am    
   2 C2             0.0147     0.0075    -0.1202 C.3     
   3 C3             0.6852    -0.4743    -1.4127 C.3     
   4 N4             1.9434     0.2636    -1.5923 N.am    
   5 C5             1.9079     1.7328    -1.6011 C.3     
   6 C6             1.2374     2.2146    -0.3086 C.3     
   7 S7             3.3757    -0.5460    -1.7808 S.o2    
   8 O8             4.4006     0.3532    -1.3804 O.2     
   9 O9             3.1928    -1.8271    -1.1938 O.2     
  10 C10            3.5983    -0.8170    -3.5075 C.ar    
  11 C11            4.2641     0.1209    -4.2742 C.ar    
  12 C12            4.4387    -0.0918    -5.6289 C.ar    
  13 C13            3.9479    -1.2426    -6.2168 C.ar    
  14 C14            3.2829    -2.1809    -5.4499 C.ar    
  15 C15            3.1121    -1.9703    -4.0944 C.ar    
  16 C16            4.1373    -1.4739    -7.6938 C.3     
  17 F17            5.3392    -2.1570    -7.9085 F       
  18 F18            3.0731    -2.2366    -8.1867 F       
  19 F19            4.1756    -0.2430    -8.3576 F       
  20 C20           -1.1872     2.1355     0.0193 C.2     
  21 O21           -2.2337     1.5182     0.0547 O.2     
  22 C22           -2.1541     4.3709    -0.5284 C.ar    
  23 C23           -1.1938     3.6091     0.1389 C.ar    
  24 C24           -0.2373     4.2637     0.9238 C.ar    
  25 C25           -0.2875     5.6445     1.0030 C.ar    
  26 C26           -1.2714     6.3270     0.3109 C.ar    
  27 N27           -2.1603     5.6832    -0.4216 N.ar    
  28 C28           -1.3292     7.8306     0.3946 C.3     
  29 C29            0.8182    -0.4794     1.0874 C.3     
  30 H30           -1.0017    -0.3827    -0.0679 H       
  31 H31            0.8941    -1.5416    -1.3406 H       
  32 H32            0.0258    -0.2845    -2.2596 H       
  33 H33            2.9243     2.1230    -1.6534 H       
  34 H34            1.3355     2.0797    -2.4614 H       
  35 H35            1.0285     3.2819    -0.3807 H       
  36 H36            1.8969     2.0248     0.5383 H       
  37 H37            4.6476     1.0200    -3.8149 H       
  38 H38            4.9582     0.6414    -6.2281 H       
  39 H39            2.8991    -3.0799    -5.9093 H       
  40 H40            2.5957    -2.7051    -3.4946 H       
  41 H41           -2.8956     3.8800    -1.1412 H       
  42 H42            0.5201     3.7056     1.4543 H       
  43 H43            0.4339     6.1835     1.5993 H       
  44 H44           -0.7215     8.2624    -0.4006 H       
  45 H45           -2.3619     8.1612     0.2831 H       
  46 H46           -0.9461     8.1556     1.3619 H       
  47 H47            0.3483    -0.1231     2.0041 H       
  48 H48            0.8431    -1.5691     1.0917 H       
  49 H49            1.8356    -0.0930     1.0267 H       
  50 C50           11.2818    14.4705     7.0114 C.2     
  51 O51           11.2982    13.2624     7.0047 O.2     
  52 O52           12.4350    15.1574     7.0041 O.3     
  53 H53           10.3392    14.9978     7.0187 H       
  54 H54           12.3713    16.1223     7.0099 H       
@<TRIPOS>BOND
   1    1    2 1
   2    1    6 1
   3    1   20 am
   4    2    3 1
   5    2   29 1
   6    2   30 1
   7    3    4 1
   8    3   31 1
   9    3   32 1
  10    4    5 1
  11    4    7 am
  12    5    6 1
  13    5   33 1
  14    5   34 1
  15    6   35 1
  16    6   36 1
  17    7    8 2
  18    7    9 2
  19    7   10 1
  20   10   11 ar
  21   10   15 ar
  22   11   12 ar
  23   11   37 1
  24   12   13 ar
  25   12   38 1
  26   13   14 ar
  27   13   16 1
  28   14   15 ar
  29   14   39 1
  30   15   40 1
  31   16   17 1
  32   16   18 1
  33   16   19 1
  34   20   21 2
  35   20   23 1
  36   22   23 ar
  37   22   27 ar
  38   22   41 1
  39   23   24 ar
  40   24   25 ar
  41   24   42 1
  42   25   26 ar
  43   25   43 1
  44   26   27 ar
  45   26   28 1
  46   28   44 1
  47   28   45 1
  48   28   46 1
  49   29   47 1
  50   29   48 1
  51   29   49 1
  52   50   51 2
  53   50   52 1
  54   50   53 1
  55   52   54 1

#	End of record

