#	Name: ASD00170859
#	Creating user name:	WinNT
#	Creation time:	15. 06. 2019 18:32

#	Modifying user name:	WinNT
#	Modification time:	15. 06. 2019 18:32

#	Program:	/corina/corina34_cracker 3.40 0067  02.08.2006

@<TRIPOS>MOLECULE
ASD00170859
  38   41    0    0    0
SMALL
NO_CHARGES


@<TRIPOS>ATOM
   1 C1             0.5107     0.6200    -1.1072 C.2     
   2 N2            -0.0638     0.1147    -0.0008 N.am    
   3 C3             0.5609     0.5468     1.1095 C.2     
   4 C4             1.6717     1.4356     0.7092 C.ar    
   5 C5             2.6343     2.1536     1.4005 C.ar    
   6 C6             3.5594     2.9129     0.7012 C.ar    
   7 C7             3.5281     2.9586    -0.6800 C.ar    
   8 C8             2.5712     2.2456    -1.3852 C.ar    
   9 C9             1.6398     1.4822    -0.6997 C.ar    
  10 O10            0.1631     0.4004    -2.2499 O.2     
  11 O11            0.2619     0.2556     2.2499 O.2     
  12 C12           -1.1578    -0.7404    -0.0043 C.2     
  13 C13           -1.0809    -2.1060    -0.1233 C.2     
  14 C14           -2.3791    -2.7443    -0.0954 C.2     
  15 C15           -3.3799    -1.8850     0.0391 C.2     
  16 S16           -2.7800    -0.2396     0.1460 S.3     
  17 C17            0.1801    -2.8381    -0.2643 C.2     
  18 C18            0.6657    -3.2224    -1.6069 C.ar    
  19 C19            1.8159    -4.0027    -1.7394 C.ar    
  20 C20            2.2637    -4.3583    -2.9942 C.ar    
  21 C21            1.5749    -3.9428    -4.1218 C.ar    
  22 C22            0.4332    -3.1685    -3.9968 C.ar    
  23 C23           -0.0273    -2.8111    -2.7471 C.ar    
  24 O24            0.8281    -3.1303     0.7240 O.2     
  25 Cl25           2.1451    -4.3940    -5.6982 Cl      
  26 C26           -2.5739    -4.2344    -0.2079 C.3     
  27 Br27          -2.4012    -5.0540     1.5707 Br      
  28 Br28          -5.2067    -2.3681     0.1131 Br      
  29 H29            2.6634     2.1221     2.4797 H       
  30 H30            4.3098     3.4732     1.2394 H       
  31 H31            4.2542     3.5541    -1.2134 H       
  32 H32            2.5513     2.2853    -2.4643 H       
  33 H33            2.3540    -4.3270    -0.8609 H       
  34 H34            3.1534    -4.9616    -3.0979 H       
  35 H35           -0.0995    -2.8472    -4.8796 H       
  36 H36           -0.9198    -2.2107    -2.6506 H       
  37 H37           -3.5661    -4.4419    -0.6087 H       
  38 H38           -1.8185    -4.6503    -0.8745 H       
@<TRIPOS>BOND
   1    1    2 am
   2    1    9 1
   3    1   10 2
   4    2    3 am
   5    2   12 1
   6    3    4 1
   7    3   11 2
   8    4    5 ar
   9    4    9 ar
  10    5    6 ar
  11    5   29 1
  12    6    7 ar
  13    6   30 1
  14    7    8 ar
  15    7   31 1
  16    8    9 ar
  17    8   32 1
  18   12   13 2
  19   12   16 1
  20   13   14 1
  21   13   17 1
  22   14   15 2
  23   14   26 1
  24   15   16 1
  25   15   28 1
  26   17   18 1
  27   17   24 2
  28   18   19 ar
  29   18   23 ar
  30   19   20 ar
  31   19   33 1
  32   20   21 ar
  33   20   34 1
  34   21   22 ar
  35   21   25 1
  36   22   23 ar
  37   22   35 1
  38   23   36 1
  39   26   27 1
  40   26   37 1
  41   26   38 1

#	End of record

