#	Name: ASD05430209
#	Creating user name:	WinNT
#	Creation time:	15. 06. 2019 21:00

#	Modifying user name:	WinNT
#	Modification time:	15. 06. 2019 21:00

#	Program:	/corina/corina34_cracker 3.40 0067  02.08.2006

@<TRIPOS>MOLECULE
ASD05430209
  77   84    0    0    0
SMALL
NO_CHARGES


@<TRIPOS>ATOM
   1 C1             0.1720     1.1790    -1.0236 C.ar    
   2 C2             0.0184    -0.0126    -0.3116 C.ar    
   3 C3             1.0522    -0.4895     0.4800 C.ar    
   4 C4             2.2440     0.2022     0.5767 C.ar    
   5 C5             2.4228     1.3950    -0.1238 C.ar    
   6 C6             1.3764     1.8890    -0.9330 C.ar    
   7 C7             4.9372    -0.0509    -0.1010 C.3     
   8 C8             4.8546     1.4585     0.0652 C.2     
   9 C9             3.6898     2.1310    -0.0213 C.2     
  10 C10            6.1668    -0.3746    -0.9519 C.3     
  11 C11            7.4833     0.0983    -0.3321 C.3     
  12 N12            7.3563     1.5030     0.0491 N.pl3   
  13 C13            6.1424     2.1366     0.3290 C.2     
  14 N14           -1.1826    -0.7273    -0.3969 N.pl3   
  15 C15           -1.4802    -1.8845     0.2260 C.2     
  16 N16           -2.3193    -0.3777    -1.1440 N.2     
  17 C17           -3.2079    -1.3154    -0.9416 C.2     
  18 N18           -2.6974    -2.2253    -0.1126 N.2     
  19 C19           -4.5883    -1.3578    -1.5446 C.3     
  20 C20            8.3959     2.5223     0.2006 C.3     
  21 O21            7.7414     3.5473     0.9776 O.3     
  22 N22            6.3481     3.3060     0.8360 N.2     
  23 C23            9.6001     1.9575     0.9568 C.3     
  24 C24           10.6681     3.0438     1.0994 C.3     
  25 C25            8.8143     3.0595    -1.1438 C.ar    
  26 C26            9.3602     4.3258    -1.2421 C.ar    
  27 C27            8.6572     2.2834    -2.2770 C.ar    
  28 C28            9.0414     2.7747    -3.5103 C.ar    
  29 C29            9.5834     4.0448    -3.6107 C.ar    
  30 C30            9.7447     4.8193    -2.4744 C.ar    
  31 F31            9.9593     4.5260    -4.8159 F       
  32 S32           12.0957     2.3741     1.9960 S.o2    
  33 O33           11.6931     2.0668     3.3237 O.2     
  34 O34           12.6951     1.3605     1.2006 O.2     
  35 C35           13.2108     3.8040     2.0466 C.3     
  36 C36            1.2269     3.0725    -1.7789 C.2     
  37 N37            0.0386     3.0298    -2.3012 N.2     
  38 O38           -0.6339     1.8686    -1.8566 O.3     
  39 C39            6.2094    -1.8341    -1.4246 C.3     
  40 C40            6.7137    -1.2972    -2.7755 C.3     
  41 C41            6.0095     0.0251    -2.4246 C.3     
  42 C42           14.4974     3.4216     2.7810 C.3     
  43 C43           15.6194     4.4608     2.8282 C.3     
  44 C44           14.8085     4.1528     4.0885 C.3     
  45 H45            0.9241    -1.4117     1.0272 H       
  46 H46            3.0401    -0.1818     1.1973 H       
  47 H47            5.0323    -0.5234     0.8767 H       
  48 H48            4.0391    -0.4152    -0.5998 H       
  49 H49            3.6880     3.2109    -0.0153 H       
  50 H50            7.7058    -0.5002     0.5513 H       
  51 H51            8.2881    -0.0105    -1.0591 H       
  52 H52           -0.8282    -2.4346     0.8883 H       
  53 H53           -4.5534    -1.8902    -2.4951 H       
  54 H54           -5.2664    -1.8729    -0.8643 H       
  55 H55           -4.9436    -0.3408    -1.7108 H       
  56 H56            9.2849     1.6257     1.9461 H       
  57 H57           10.0123     1.1129     0.4046 H       
  58 H58           10.9833     3.3755     0.1102 H       
  59 H59           10.2558     3.8883     1.6516 H       
  60 H60            9.4860     4.9297    -0.3557 H       
  61 H61            8.2344     1.2928    -2.1984 H       
  62 H62            8.9192     2.1679    -4.3954 H       
  63 H63           10.1671     5.8103    -2.5516 H       
  64 H64           13.4513     4.1134     1.0294 H       
  65 H65           12.7238     4.6262     2.5709 H       
  66 H66            1.9685     3.8409    -1.9398 H       
  67 H67            6.9422    -2.4434    -0.8956 H       
  68 H68            5.2275    -2.3040    -1.4804 H       
  69 H69            7.7988    -1.2118    -2.8337 H       
  70 H70            6.2815    -1.8069    -3.6366 H       
  71 H71            4.9723     0.0691    -2.7568 H       
  72 H72            6.5814     0.9111    -2.7002 H       
  73 H73           14.7856     2.3728     2.7096 H       
  74 H74           16.6456     4.0957     2.7882 H       
  75 H75           15.4409     5.4169     2.3360 H       
  76 H76           14.0965     4.9062     4.4255 H       
  77 H77           15.3012     3.5850     4.8777 H       
@<TRIPOS>BOND
   1    1    2 ar
   2    1    6 ar
   3    1   38 1
   4    2    3 ar
   5    2   14 1
   6    3    4 ar
   7    3   45 1
   8    4    5 ar
   9    4   46 1
  10    5    6 ar
  11    5    9 1
  12    6   36 1
  13    7    8 1
  14    7   10 1
  15    7   47 1
  16    7   48 1
  17    8    9 2
  18    8   13 1
  19    9   49 1
  20   10   11 1
  21   10   39 1
  22   10   41 1
  23   11   12 1
  24   11   50 1
  25   11   51 1
  26   12   13 1
  27   12   20 1
  28   13   22 2
  29   14   15 1
  30   14   16 1
  31   15   18 2
  32   15   52 1
  33   16   17 2
  34   17   18 1
  35   17   19 1
  36   19   53 1
  37   19   54 1
  38   19   55 1
  39   20   21 1
  40   20   23 1
  41   20   25 1
  42   21   22 1
  43   23   24 1
  44   23   56 1
  45   23   57 1
  46   24   32 1
  47   24   58 1
  48   24   59 1
  49   25   26 ar
  50   25   27 ar
  51   26   30 ar
  52   26   60 1
  53   27   28 ar
  54   27   61 1
  55   28   29 ar
  56   28   62 1
  57   29   30 ar
  58   29   31 1
  59   30   63 1
  60   32   33 2
  61   32   34 2
  62   32   35 1
  63   35   42 1
  64   35   64 1
  65   35   65 1
  66   36   37 2
  67   36   66 1
  68   37   38 1
  69   39   40 1
  70   39   67 1
  71   39   68 1
  72   40   41 1
  73   40   69 1
  74   40   70 1
  75   41   71 1
  76   41   72 1
  77   42   43 1
  78   42   44 1
  79   42   73 1
  80   43   44 1
  81   43   74 1
  82   43   75 1
  83   44   76 1
  84   44   77 1

#	End of record

