#	Name: ASD01810344
#	Creating user name:	WinNT
#	Creation time:	15. 06. 2019 19:24

#	Modifying user name:	WinNT
#	Modification time:	15. 06. 2019 19:24

#	Program:	/corina/corina34_cracker 3.40 0067  02.08.2006

@<TRIPOS>MOLECULE
ASD01810344
  36   38    0    0    0
SMALL
NO_CHARGES


@<TRIPOS>ATOM
   1 N1            -0.0161     1.3349     0.0094 N.pl3   
   2 C2             0.0021    -0.0041     0.0020 C.2     
   3 C3             1.1800    -0.7235    -0.0127 C.2     
   4 C4             2.4584     0.0058    -0.0210 C.2     
   5 C5             2.3933     1.4792    -0.0130 C.ar    
   6 C6             3.5540     2.2528    -0.0195 C.ar    
   7 C7             3.4562     3.6265    -0.0112 C.ar    
   8 C8             2.2112     4.2396     0.0036 C.ar    
   9 C9             1.0568     3.4882     0.0101 C.ar    
  10 C10            1.1317     2.0975     0.0025 C.ar    
  11 C11            1.1580    -2.1931    -0.0194 C.2     
  12 O12            0.0963    -2.7852    -0.0120 O.2     
  13 O13            2.3151    -2.8845    -0.0338 O.3     
  14 O14            3.5253    -0.5827    -0.0336 O.2     
  15 C15           -1.3118     2.0184     0.0191 C.3     
  16 C16           -1.7495     2.2451     1.4433 C.ar    
  17 C17           -1.3906     3.4088     2.0983 C.ar    
  18 C18           -1.7900     3.6197     3.4034 C.ar    
  19 C19           -2.5531     2.6612     4.0581 C.ar    
  20 C20           -2.9118     1.4933     3.3971 C.ar    
  21 C21           -2.5138     1.2913     2.0902 C.ar    
  22 N22           -2.9583     2.8710     5.3782 N.pl3   
  23 H23           -0.9362    -0.5389     0.0081 H       
  24 H24            4.5237     1.7774    -0.0306 H       
  25 H25            4.3523     4.2293    -0.0158 H       
  26 H26            2.1468     5.3177     0.0103 H       
  27 H27            0.0940     3.9773     0.0213 H       
  28 H28            2.2501    -3.8493    -0.0378 H       
  29 H29           -1.2203     2.9779    -0.4899 H       
  30 H30           -2.0508     1.4036    -0.4946 H       
  31 H31           -0.7971     4.1535     1.5889 H       
  32 H32           -1.5092     4.5287     3.9146 H       
  33 H33           -3.5050     0.7460     3.9032 H       
  34 H34           -2.7963     0.3856     1.5741 H       
  35 H35           -2.7070     3.6868     5.8388 H       
  36 H36           -3.4911     2.2010     5.8343 H       
@<TRIPOS>BOND
   1    1    2 1
   2    1   10 1
   3    1   15 1
   4    2    3 2
   5    2   23 1
   6    3    4 1
   7    3   11 1
   8    4    5 1
   9    4   14 2
  10    5    6 ar
  11    5   10 ar
  12    6    7 ar
  13    6   24 1
  14    7    8 ar
  15    7   25 1
  16    8    9 ar
  17    8   26 1
  18    9   10 ar
  19    9   27 1
  20   11   12 2
  21   11   13 1
  22   13   28 1
  23   15   16 1
  24   15   29 1
  25   15   30 1
  26   16   17 ar
  27   16   21 ar
  28   17   18 ar
  29   17   31 1
  30   18   19 ar
  31   18   32 1
  32   19   20 ar
  33   19   22 1
  34   20   21 ar
  35   20   33 1
  36   21   34 1
  37   22   35 1
  38   22   36 1

#	End of record

