#	Name: ASD02500656
#	Creating user name:	WinNT
#	Creation time:	15. 06. 2019 20:23

#	Modifying user name:	WinNT
#	Modification time:	15. 06. 2019 20:23

#	Program:	/corina/corina34_cracker 3.40 0067  02.08.2006

@<TRIPOS>MOLECULE
ASD02500656
  68   72    0    0    0
SMALL
NO_CHARGES


@<TRIPOS>ATOM
   1 N1            -3.5352     5.5766    -0.0130 N.ar    
   2 C2            -4.6608     6.2147    -0.2234 C.ar    
   3 C3            -5.7810     6.0098     0.5796 C.ar    
   4 C4            -5.7228     5.1240     1.6175 C.ar    
   5 C5            -4.5125     4.4403     1.8401 C.ar    
   6 C6            -4.3772     3.5154     2.8876 C.ar    
   7 C7            -3.1896     2.8747     3.0704 C.ar    
   8 C8            -2.1059     3.1250     2.2315 C.ar    
   9 C9            -2.2020     4.0151     1.2064 C.ar    
  10 C10           -3.4115     4.6965     0.9856 C.ar    
  11 S11           -0.8154     4.3132     0.1609 S.o2    
  12 O12           -0.6576     5.7239     0.0961 O.2     
  13 O13            0.2128     3.4353     0.5981 O.2     
  14 N14           -1.2354     3.8192    -1.3629 N.am    
  15 C15           -1.4422     2.4667    -1.6244 C.ar    
  16 C16           -1.1128     1.9402    -2.8752 C.ar    
  17 C17           -1.3174     0.6005    -3.1350 C.ar    
  18 C18           -1.8547    -0.2271    -2.1438 C.ar    
  19 C19           -2.1823     0.3053    -0.8944 C.ar    
  20 C20           -1.9708     1.6422    -0.6380 C.ar    
  21 C21           -2.0755    -1.6598    -2.4173 C.2     
  22 O22           -2.5072    -2.0130    -3.4978 O.2     
  23 N23           -1.7989    -2.5773    -1.4696 N.am    
  24 C24           -1.9247    -4.0153    -1.7514 C.3     
  25 C25           -0.6229    -4.7086    -1.3357 C.3     
  26 N26           -0.3183    -4.3739     0.0619 N.3     
  27 C27           -0.0834    -2.9331     0.2257 C.3     
  28 C28           -1.3572    -2.1672    -0.1280 C.3     
  29 C29            0.8264    -5.1530     0.5524 C.3     
  30 C30            2.3492    -3.7687     1.9835 C.ar    
  31 C31            1.2635    -4.6154     1.8906 C.ar    
  32 C32            0.5772    -4.9659     3.0504 C.ar    
  33 C33            1.0194    -4.4428     4.2632 C.ar    
  34 C34            2.1133    -3.6024     4.2722 C.ar    
  35 N35            2.7379    -3.2934     3.1514 N.ar    
  36 O36           -0.4958    -5.7958     3.0002 O.3     
  37 C37           -1.1385    -6.1008     4.2396 C.3     
  38 O38           -0.5909     2.7477    -3.8372 O.3     
  39 C39           -0.2773     2.1419    -5.0929 C.3     
  40 H40           -4.7214     6.9182    -1.0406 H       
  41 H41           -6.6942     6.5511     0.3816 H       
  42 H42           -6.5813     4.9531     2.2501 H       
  43 H43           -5.2100     3.3136     3.5449 H       
  44 H44           -3.0864     2.1634     3.8765 H       
  45 H45           -1.1742     2.6045     2.3975 H       
  46 H46           -1.3373     4.4716    -2.0734 H       
  47 H47           -1.0635     0.1919    -4.1019 H       
  48 H48           -2.5972    -0.3323    -0.1278 H       
  49 H49           -2.2205     2.0515     0.3297 H       
  50 H50           -2.7575    -4.4285    -1.1823 H       
  51 H51           -2.0955    -4.1660    -2.8174 H       
  52 H52           -0.7381    -5.7880    -1.4343 H       
  53 H53            0.1907    -4.3691    -1.9766 H       
  54 H54            0.1927    -2.7247     1.2594 H       
  55 H55            0.7227    -2.6183    -0.4370 H       
  56 H56           -1.1530    -1.0965    -0.1211 H       
  57 H57           -2.1344    -2.3992     0.6002 H       
  58 H58            0.5359    -6.1983     0.6580 H       
  59 H59            1.6500    -5.0747    -0.1572 H       
  60 H60            2.8901    -3.4951     1.0897 H       
  61 H61            0.5125    -4.6914     5.1839 H       
  62 H62            2.4628    -3.1920     5.2080 H       
  63 H63           -0.4263    -6.5830     4.9092 H       
  64 H64           -1.5014    -5.1803     4.6969 H       
  65 H65           -1.9781    -6.7718     4.0579 H       
  66 H66            0.1301     2.8946    -5.7678 H       
  67 H67            0.4592     1.3527    -4.9417 H       
  68 H68           -1.1820     1.7162    -5.5269 H       
@<TRIPOS>BOND
   1    1    2 ar
   2    1   10 ar
   3    2    3 ar
   4    2   40 1
   5    3    4 ar
   6    3   41 1
   7    4    5 ar
   8    4   42 1
   9    5    6 ar
  10    5   10 ar
  11    6    7 ar
  12    6   43 1
  13    7    8 ar
  14    7   44 1
  15    8    9 ar
  16    8   45 1
  17    9   10 ar
  18    9   11 1
  19   11   12 2
  20   11   13 2
  21   11   14 am
  22   14   15 1
  23   14   46 1
  24   15   16 ar
  25   15   20 ar
  26   16   17 ar
  27   16   38 1
  28   17   18 ar
  29   17   47 1
  30   18   19 ar
  31   18   21 1
  32   19   20 ar
  33   19   48 1
  34   20   49 1
  35   21   22 2
  36   21   23 am
  37   23   24 1
  38   23   28 1
  39   24   25 1
  40   24   50 1
  41   24   51 1
  42   25   26 1
  43   25   52 1
  44   25   53 1
  45   26   27 1
  46   26   29 1
  47   27   28 1
  48   27   54 1
  49   27   55 1
  50   28   56 1
  51   28   57 1
  52   29   31 1
  53   29   58 1
  54   29   59 1
  55   30   31 ar
  56   30   35 ar
  57   30   60 1
  58   31   32 ar
  59   32   33 ar
  60   32   36 1
  61   33   34 ar
  62   33   61 1
  63   34   35 ar
  64   34   62 1
  65   36   37 1
  66   37   63 1
  67   37   64 1
  68   37   65 1
  69   38   39 1
  70   39   66 1
  71   39   67 1
  72   39   68 1

#	End of record

