#	Name: ASD01209416
#	Creating user name:	WinNT
#	Creation time:	15. 06. 2019 19:11

#	Modifying user name:	WinNT
#	Modification time:	15. 06. 2019 19:11

#	Program:	/corina/corina34_cracker 3.40 0067  02.08.2006

@<TRIPOS>MOLECULE
ASD01209416
  44   45    0    0    0
SMALL
NO_CHARGES


@<TRIPOS>ATOM
   1 C1             0.0799     1.5484    -0.0699 C.2     
   2 C2             0.0432     0.0419    -0.0615 C.3     
   3 C3            -0.0648    -0.4737    -1.4979 C.3     
   4 O4             1.1405     2.1270    -0.0512 O.2     
   5 O5            -1.0655     2.2475    -0.1038 O.3     
   6 S6             1.5625    -0.5958     0.6972 S.3     
   7 N7             2.4879    -3.1191     0.9471 N.am    
   8 C8             1.2270    -2.3717     0.8521 C.3     
   9 C9             0.4838    -2.6516     2.1376 C.2     
  10 C10            1.2493    -3.4627     2.8608 C.2     
  11 C11            2.4883    -3.7562     2.1331 C.2     
  12 O12            3.3842    -4.4703     2.5410 O.2     
  13 C13            0.8967    -4.0003     4.2237 C.3     
  14 C14           -0.8688    -2.1128     2.5264 C.3     
  15 C15            3.5465    -3.1675    -0.0644 C.3     
  16 C16            4.5329    -2.0562     0.1873 C.ar    
  17 C17            5.6246    -2.2749     1.0071 C.ar    
  18 C18            6.5302    -1.2579     1.2393 C.ar    
  19 C19            6.3436    -0.0163     0.6492 C.ar    
  20 C20            5.2474     0.2006    -0.1730 C.ar    
  21 C21            4.3477    -0.8214    -0.4066 C.ar    
  22 O22            7.2328     0.9859     0.8765 O.3     
  23 C23            6.9773     2.2375     0.2360 C.3     
  24 H24           -0.8194    -0.2973     0.5121 H       
  25 H25            0.7978    -0.1345    -2.0715 H       
  26 H26           -0.0914    -1.5633    -1.4918 H       
  27 H27           -0.9778    -0.0905    -1.9538 H       
  28 H28           -0.9914     3.2116    -0.1079 H       
  29 H29            0.6469    -2.7202    -0.0024 H       
  30 H30            0.3623    -4.9441     4.1149 H       
  31 H31            1.8092    -4.1635     4.7971 H       
  32 H32            0.2635    -3.2823     4.7449 H       
  33 H33           -1.6478    -2.7469     2.1032 H       
  34 H34           -0.9578    -2.1039     3.6127 H       
  35 H35           -0.9791    -1.0979     2.1444 H       
  36 H36            4.0590    -4.1278    -0.0083 H       
  37 H37            3.1082    -3.0468    -1.0551 H       
  38 H38            5.7692    -3.2416     1.4666 H       
  39 H39            7.3826    -1.4292     1.8801 H       
  40 H40            5.0999     1.1663    -0.6335 H       
  41 H41            3.4967    -0.6545    -1.0503 H       
  42 H42            6.9647     2.0967    -0.8448 H       
  43 H43            6.0117     2.6228     0.5635 H       
  44 H44            7.7607     2.9477     0.5008 H       
@<TRIPOS>BOND
   1    1    2 1
   2    1    4 2
   3    1    5 1
   4    2    3 1
   5    2    6 1
   6    2   24 1
   7    3   25 1
   8    3   26 1
   9    3   27 1
  10    5   28 1
  11    6    8 1
  12    7    8 1
  13    7   11 am
  14    7   15 1
  15    8    9 1
  16    8   29 1
  17    9   10 2
  18    9   14 1
  19   10   11 1
  20   10   13 1
  21   11   12 2
  22   13   30 1
  23   13   31 1
  24   13   32 1
  25   14   33 1
  26   14   34 1
  27   14   35 1
  28   15   16 1
  29   15   36 1
  30   15   37 1
  31   16   17 ar
  32   16   21 ar
  33   17   18 ar
  34   17   38 1
  35   18   19 ar
  36   18   39 1
  37   19   20 ar
  38   19   22 1
  39   20   21 ar
  40   20   40 1
  41   21   41 1
  42   22   23 1
  43   23   42 1
  44   23   43 1
  45   23   44 1

#	End of record

