#	Name: ASD03490095
#	Creating user name:	WinNT
#	Creation time:	15. 06. 2019 20:42

#	Modifying user name:	WinNT
#	Modification time:	15. 06. 2019 20:42

#	Program:	/corina/corina34_cracker 3.40 0067  02.08.2006

@<TRIPOS>MOLECULE
ASD03490095
  38   41    0    0    0
SMALL
NO_CHARGES


@<TRIPOS>ATOM
   1 C1            -0.0179     1.4674     0.0101 C.3     
   2 N2             0.0021    -0.0041     0.0020 N.3     
   3 C3             0.4625    -0.5126     1.2980 C.3     
   4 N4            -1.3697     1.1988    -2.1257 N.pl3   
   5 C5             1.4254     1.9720    -0.0010 C.3     
   6 N6            -0.8569     3.2214    -1.5621 N.2     
   7 C7            -0.7397     1.9708    -1.2133 C.2     
   8 C8             1.7712     0.1271     1.6810 C.ar    
   9 C9             2.2189     1.2838     1.0799 C.ar    
  10 C10            2.5366    -0.4753     2.6690 C.ar    
  11 C11            3.4285     1.8400     1.4682 C.ar    
  12 C12            3.7408     0.0783     3.0538 C.ar    
  13 C13            4.1883     1.2398     2.4519 C.ar    
  14 C14           -1.5644     3.2975    -2.7076 C.2     
  15 C15           -1.8941     2.0316    -3.0745 C.2     
  16 C16           -1.9193     4.5404    -3.4362 C.ar    
  17 C17           -1.5136     5.7794    -2.9439 C.ar    
  18 C18           -2.6546     4.4723    -4.6180 C.ar    
  19 C19           -1.8459     6.9324    -3.6256 C.ar    
  20 C20           -2.9817     5.6312    -5.2921 C.ar    
  21 C21           -2.5808     6.8597    -4.7962 C.ar    
  22 Br22          -3.0331     8.4437    -5.7247 Br      
  23 H23           -0.5229     1.8219     0.9087 H       
  24 H24           -0.9063    -0.3767    -0.2307 H       
  25 H25           -0.2846    -0.2869     2.0589 H       
  26 H26            0.5951    -1.5926     1.2340 H       
  27 H27           -1.4345     0.2310    -2.1123 H       
  28 H28            1.8754     1.7601    -0.9709 H       
  29 H29            1.4340     3.0479     0.1731 H       
  30 H30            2.1878    -1.3825     3.1400 H       
  31 H31            3.7780     2.7474     0.9981 H       
  32 H32            4.3324    -0.3948     3.8236 H       
  33 H33            5.1299     1.6763     2.7507 H       
  34 H34           -2.4606     1.7398    -3.9465 H       
  35 H35           -0.9404     5.8372    -2.0304 H       
  36 H36           -2.9675     3.5142    -5.0060 H       
  37 H37           -1.5322     7.8931    -3.2447 H       
  38 H38           -3.5515     5.5795    -6.2081 H       
@<TRIPOS>BOND
   1    1    2 1
   2    1    5 1
   3    1    7 1
   4    1   23 1
   5    2    3 1
   6    2   24 1
   7    3    8 1
   8    3   25 1
   9    3   26 1
  10    4    7 1
  11    4   15 1
  12    4   27 1
  13    5    9 1
  14    5   28 1
  15    5   29 1
  16    6    7 2
  17    6   14 1
  18    8    9 ar
  19    8   10 ar
  20    9   11 ar
  21   10   12 ar
  22   10   30 1
  23   11   13 ar
  24   11   31 1
  25   12   13 ar
  26   12   32 1
  27   13   33 1
  28   14   15 2
  29   14   16 1
  30   15   34 1
  31   16   17 ar
  32   16   18 ar
  33   17   19 ar
  34   17   35 1
  35   18   20 ar
  36   18   36 1
  37   19   21 ar
  38   19   37 1
  39   20   21 ar
  40   20   38 1
  41   21   22 1

#	End of record

