#	Name: ASD04590727
#	Creating user name:	WinNT
#	Creation time:	15. 06. 2019 20:51

#	Modifying user name:	WinNT
#	Modification time:	15. 06. 2019 20:51

#	Program:	/corina/corina34_cracker 3.40 0067  02.08.2006

@<TRIPOS>MOLECULE
ASD04590727
  67   72    0    0    0
SMALL
NO_CHARGES


@<TRIPOS>ATOM
   1 O1            -0.0146     1.3500     0.0075 O.3     
   2 N2             0.1196    -3.8647     4.5017 N.ar    
   3 C3             0.0976    -2.7555     5.2296 C.ar    
   4 N4             0.0685    -1.5511     4.6827 N.ar    
   5 C5             0.0601    -1.4082     3.3606 C.ar    
   6 C6             0.0829    -2.5675     2.5592 C.ar    
   7 C7             0.1132    -3.8124     3.1799 C.ar    
   8 N8             0.0322    -0.3122     2.5353 N.pl3   
   9 C9             0.0358    -0.7072     1.2074 C.ar    
  10 C10            0.0671    -2.1096     1.1640 C.ar    
  11 C11            0.0158    -0.0069     0.0006 C.ar    
  12 N12            0.0258    -0.6585    -1.1487 N.ar    
  13 C13            0.0547    -1.9792    -1.2134 C.ar    
  14 C14            0.0764    -2.7437    -0.0805 C.ar    
  15 C15            0.0024     1.0790     2.9936 C.3     
  16 N16            0.1050    -2.8623     6.6107 N.pl3   
  17 C17            0.0222    -4.1173     7.2136 C.ar    
  18 N18           -0.1643    -5.1918     6.4643 N.ar    
  19 C19           -0.2487    -6.3986     6.9913 C.ar    
  20 C20           -0.1441    -6.5827     8.3618 C.ar    
  21 C21            0.0528    -5.4738     9.1834 C.ar    
  22 C22            0.1424    -4.2256     8.5947 C.ar    
  23 N23           -0.2356    -7.8661     8.9134 N.3     
  24 C24           -0.4426    -8.8760     7.8661 C.3     
  25 C25           -0.4576   -10.2689     8.5002 C.3     
  26 N26           -1.5245   -10.3338     9.5087 N.3     
  27 C27           -1.3175    -9.3239    10.5560 C.3     
  28 C28           -1.3025    -7.9310     9.9219 C.3     
  29 C29           -1.2489     1.3093     3.8432 C.3     
  30 C30           -1.2800     2.7622     4.3219 C.3     
  31 C31           -0.0336     3.0494     5.1614 C.3     
  32 C32            1.2178     2.8191     4.3117 C.3     
  33 C33            1.2489     1.3662     3.8331 C.3     
  34 C34           -0.0647     4.5023     5.6400 C.3     
  35 C35           -0.0074     2.1141     6.3719 C.3     
  36 H36            0.8598     1.7630     0.0063 H       
  37 H37            0.1308    -4.7191     2.5935 H       
  38 H38            0.0617    -2.4625    -2.1792 H       
  39 H39            0.1002    -3.8214    -0.1466 H       
  40 H40           -0.0162     1.7453     2.1312 H       
  41 H41            0.1677    -2.0642     7.1585 H       
  42 H42           -0.4013    -7.2526     6.3480 H       
  43 H43            0.1375    -5.5873    10.2541 H       
  44 H44            0.2948    -3.3449     9.2010 H       
  45 H45           -1.3946    -8.6931     7.3677 H       
  46 H46            0.3666    -8.8164     7.1384 H       
  47 H47           -0.6399   -11.0175     7.7291 H       
  48 H48            0.5041   -10.4626     8.9753 H       
  49 H49           -2.4327   -10.2307     9.0813 H       
  50 H50           -2.1268    -9.3836    11.2837 H       
  51 H51           -0.3656    -9.5068    11.0544 H       
  52 H52           -1.1202    -7.1824    10.6929 H       
  53 H53           -2.2643    -7.7374     9.4468 H       
  54 H54           -2.1369     1.1047     3.2452 H       
  55 H55           -1.2302     0.6430     4.7056 H       
  56 H56           -1.2987     3.4285     3.4595 H       
  57 H57           -2.1715     2.9263     4.9272 H       
  58 H58            1.1991     3.4854     3.4493 H       
  59 H59            2.1058     3.0237     4.9098 H       
  60 H60            1.2676     0.6998     4.6955 H       
  61 H61            2.1404     1.2021     3.2278 H       
  62 H62           -0.9562     4.6664     6.2453 H       
  63 H63            0.8233     4.7069     6.2381 H       
  64 H64           -0.0834     5.1686     4.7776 H       
  65 H65            0.0148     1.0790     6.0309 H       
  66 H66            0.8806     2.3187     6.9700 H       
  67 H67           -0.8989     2.2782     6.9772 H       
@<TRIPOS>BOND
   1    1   11 1
   2    1   36 1
   3    2    3 ar
   4    2    7 ar
   5    3    4 ar
   6    3   16 1
   7    4    5 ar
   8    5    6 ar
   9    5    8 1
  10    6    7 ar
  11    6   10 1
  12    7   37 1
  13    8    9 1
  14    8   15 1
  15    9   10 ar
  16    9   11 ar
  17   10   14 ar
  18   11   12 ar
  19   12   13 ar
  20   13   14 ar
  21   13   38 1
  22   14   39 1
  23   15   29 1
  24   15   33 1
  25   15   40 1
  26   16   17 1
  27   16   41 1
  28   17   18 ar
  29   17   22 ar
  30   18   19 ar
  31   19   20 ar
  32   19   42 1
  33   20   21 ar
  34   20   23 1
  35   21   22 ar
  36   21   43 1
  37   22   44 1
  38   23   24 1
  39   23   28 1
  40   24   25 1
  41   24   45 1
  42   24   46 1
  43   25   26 1
  44   25   47 1
  45   25   48 1
  46   26   27 1
  47   26   49 1
  48   27   28 1
  49   27   50 1
  50   27   51 1
  51   28   52 1
  52   28   53 1
  53   29   30 1
  54   29   54 1
  55   29   55 1
  56   30   31 1
  57   30   56 1
  58   30   57 1
  59   31   32 1
  60   31   34 1
  61   31   35 1
  62   32   33 1
  63   32   58 1
  64   32   59 1
  65   33   60 1
  66   33   61 1
  67   34   62 1
  68   34   63 1
  69   34   64 1
  70   35   65 1
  71   35   66 1
  72   35   67 1

#	End of record

