#	Name: ASD03731275
#	Creating user name:	WinNT
#	Creation time:	15. 06. 2019 20:45

#	Modifying user name:	WinNT
#	Modification time:	15. 06. 2019 20:45

#	Program:	/corina/corina34_cracker 3.40 0067  02.08.2006

@<TRIPOS>MOLECULE
ASD03731275
  57   62    0    0    0
SMALL
NO_CHARGES


@<TRIPOS>ATOM
   1 N1            -0.0162     1.3436     0.0094 N.am    
   2 C2             0.0562     0.0126     0.2090 C.2     
   3 O3             1.1402    -0.5294     0.3070 O.2     
   4 N4            -1.0730    -0.7176     0.3000 N.am    
   5 C5            -0.9943    -2.1643     0.5170 C.3     
   6 C6            -2.4071    -2.7479     0.5816 C.3     
   7 O7             2.5555    -7.0753     3.4690 O.3     
   8 C8             3.0268    -8.3612     3.9131 C.3     
   9 O9             1.8633    -8.9651     4.5087 O.3     
  10 C10            0.7933    -8.3996     3.8762 C.ar    
  11 C11            1.2194    -7.2370     3.2379 C.ar    
  12 C12           -0.5312    -8.7896     3.7911 C.ar    
  13 C13           -1.4461    -8.0265     3.0720 C.ar    
  14 C14           -1.0104    -6.8628     2.4456 C.ar    
  15 C15            0.3108    -6.4745     2.5234 C.ar    
  16 O16           -2.7753    -8.2384     2.8512 O.3     
  17 C17           -2.2178    -6.2538     1.7844 C.3     
  18 C18           -3.3896    -7.0049     2.4309 C.3     
  19 N19           -2.3284    -4.1946     0.7985 N.am    
  20 C20           -2.3060    -4.7728     2.0160 C.2     
  21 C21           -2.1987    -6.4229     0.2941 C.ar    
  22 C22           -2.1310    -7.5176    -0.5384 C.ar    
  23 C23           -2.1333    -7.3455    -1.9111 C.ar    
  24 C24           -2.2031    -6.0715    -2.4450 C.ar    
  25 C25           -2.2701    -4.9718    -1.6153 C.ar    
  26 C26           -2.2687    -5.1356    -0.2322 C.ar    
  27 O27           -2.3491    -4.2076     3.0883 O.2     
  28 C28            1.1507     2.1160     0.0123 C.ar    
  29 C29            2.3296     1.5973    -0.5068 C.ar    
  30 C30            3.4804     2.3628    -0.5024 C.ar    
  31 C31            3.4579     3.6448     0.0192 C.ar    
  32 C32            2.2853     4.1630     0.5364 C.ar    
  33 C33            1.1306     3.4047     0.5290 C.ar    
  34 C34            4.7142     4.4770     0.0237 C.3     
  35 Cl35           4.9550     1.7159    -1.1508 Cl      
  36 H36           -0.8767     1.7654    -0.1402 H       
  37 H37           -1.9378    -0.2852     0.2218 H       
  38 H38           -0.4478    -2.6258    -0.3055 H       
  39 H39           -0.4757    -2.3633     1.4548 H       
  40 H40           -2.9536    -2.2863     1.4040 H       
  41 H41           -2.9257    -2.5488    -0.3562 H       
  42 H42            3.3757    -8.9541     3.0677 H       
  43 H43            3.8187    -8.2443     4.6529 H       
  44 H44           -0.8573    -9.6923     4.2862 H       
  45 H45            0.6375    -5.5732     2.0260 H       
  46 H46           -4.1777    -7.1937     1.7020 H       
  47 H47           -3.7772    -6.4538     3.2877 H       
  48 H48           -2.0763    -8.5115    -0.1193 H       
  49 H49           -2.0811    -8.2040    -2.5644 H       
  50 H50           -2.2048    -5.9372    -3.5166 H       
  51 H51           -2.3239    -3.9801    -2.0396 H       
  52 H52            2.3474     0.5968    -0.9131 H       
  53 H53            2.2708     5.1636     0.9426 H       
  54 H54            0.2140     3.8121     0.9292 H       
  55 H55            4.7736     5.0503    -0.9015 H       
  56 H56            4.6949     5.1595     0.8733 H       
  57 H57            5.5828     3.8233     0.1024 H       
@<TRIPOS>BOND
   1    1    2 am
   2    1   28 1
   3    1   36 1
   4    2    3 2
   5    2    4 am
   6    4    5 1
   7    4   37 1
   8    5    6 1
   9    5   38 1
  10    5   39 1
  11    6   19 1
  12    6   40 1
  13    6   41 1
  14    7    8 1
  15    7   11 1
  16    8    9 1
  17    8   42 1
  18    8   43 1
  19    9   10 1
  20   10   11 ar
  21   10   12 ar
  22   11   15 ar
  23   12   13 ar
  24   12   44 1
  25   13   14 ar
  26   13   16 1
  27   14   15 ar
  28   14   17 1
  29   15   45 1
  30   16   18 1
  31   17   18 1
  32   17   20 1
  33   17   21 1
  34   18   46 1
  35   18   47 1
  36   19   20 am
  37   19   26 1
  38   20   27 2
  39   21   22 ar
  40   21   26 ar
  41   22   23 ar
  42   22   48 1
  43   23   24 ar
  44   23   49 1
  45   24   25 ar
  46   24   50 1
  47   25   26 ar
  48   25   51 1
  49   28   29 ar
  50   28   33 ar
  51   29   30 ar
  52   29   52 1
  53   30   31 ar
  54   30   35 1
  55   31   32 ar
  56   31   34 1
  57   32   33 ar
  58   32   53 1
  59   33   54 1
  60   34   55 1
  61   34   56 1
  62   34   57 1

#	End of record

