#	Name: ASD01882974
#	Creating user name:	WinNT
#	Creation time:	15. 06. 2019 19:45

#	Modifying user name:	WinNT
#	Modification time:	15. 06. 2019 19:45

#	Program:	/corina/corina34_cracker 3.40 0067  02.08.2006

@<TRIPOS>MOLECULE
ASD01882974
  36   38    0    0    0
SMALL
NO_CHARGES


@<TRIPOS>ATOM
   1 C1            -0.0171     1.4063     0.0098 C.2     
   2 C2             0.0021    -0.0041     0.0020 C.2     
   3 C3            -1.2284    -0.6974     0.0105 C.2     
   4 C4            -2.3896    -0.0086     0.0258 C.2     
   5 N5            -2.4072     1.3508     0.0328 N.am    
   6 C6            -1.2682     2.0676     0.0312 C.2     
   7 C7            -3.6941     2.0506     0.0484 C.3     
   8 C8            -4.1286     2.2870     1.4962 C.3     
   9 C9             1.2044     2.1537     0.0021 C.1     
  10 N10            2.1734     2.7466    -0.0039 N.1     
  11 O11           -1.3142     3.2861     0.0384 O.2     
  12 C12           -5.4524     3.0069     1.5123 C.ar    
  13 C13            1.2749    -0.7363    -0.0151 C.2     
  14 C14            1.7377    -1.5445     0.9845 C.2     
  15 C15            2.9621    -2.1075     0.7056 C.2     
  16 C16            3.4835    -1.7725    -0.4795 C.2     
  17 S17            2.4439    -0.7192    -1.3284 S.3     
  18 C18           -6.6315     2.2853     1.5197 C.ar    
  19 C19           -7.8459     2.9457     1.5344 C.ar    
  20 C20           -7.8811     4.3276     1.5421 C.ar    
  21 C21           -6.7020     5.0491     1.5356 C.ar    
  22 C22           -5.4877     4.3887     1.5253 C.ar    
  23 H23           -1.2405    -1.7773     0.0045 H       
  24 H24           -3.3245    -0.5492     0.0322 H       
  25 H25           -3.5929     3.0087    -0.4616 H       
  26 H26           -4.4433     1.4449    -0.4615 H       
  27 H27           -4.2298     1.3290     2.0062 H       
  28 H28           -3.3795     2.8927     2.0061 H       
  29 H29            1.1967    -1.7238     1.9018 H       
  30 H30            3.4652    -2.7708     1.3935 H       
  31 H31            4.4339    -2.1256    -0.8517 H       
  32 H32           -6.6040     1.2057     1.5137 H       
  33 H33           -8.7671     2.3820     1.5394 H       
  34 H34           -8.8299     4.8435     1.5528 H       
  35 H35           -6.7296     6.1287     1.5413 H       
  36 H36           -4.5665     4.9524     1.5202 H       
@<TRIPOS>BOND
   1    1    2 2
   2    1    9 1
   3    1    6 1
   4    2    3 1
   5    2   13 1
   6    3    4 2
   7    3   23 1
   8    4    5 1
   9    4   24 1
  10    5    7 1
  11    5    6 am
  12    6   11 2
  13    7    8 1
  14    7   25 1
  15    7   26 1
  16    8   12 1
  17    8   27 1
  18    8   28 1
  19    9   10 3
  20   12   18 ar
  21   12   22 ar
  22   13   14 2
  23   13   17 1
  24   14   15 1
  25   14   29 1
  26   15   16 2
  27   15   30 1
  28   16   17 1
  29   16   31 1
  30   18   19 ar
  31   18   32 1
  32   19   20 ar
  33   19   33 1
  34   20   21 ar
  35   20   34 1
  36   21   22 ar
  37   21   35 1
  38   22   36 1

#	End of record

