#	Name: ASD01912511
#	Creating user name:	WinNT
#	Creation time:	15. 06. 2019 19:59

#	Modifying user name:	WinNT
#	Modification time:	15. 06. 2019 19:59

#	Program:	/corina/corina34_cracker 3.40 0067  02.08.2006

@<TRIPOS>MOLECULE
ASD01912511
  45   49    0    0    0
SMALL
NO_CHARGES


@<TRIPOS>ATOM
   1 N1             0.0357     1.1245     0.0668 N.2     
   2 C2             0.0897    -0.1817     0.0391 C.2     
   3 N3             1.3966    -0.5266     0.0018 N.2     
   4 C4             2.0590     0.6033     0.0092 C.2     
   5 O5             1.1563     1.5884     0.0501 O.3     
   6 C6            -1.0670    -1.1117     0.0477 C.ar    
   7 C7            -2.3663    -0.6107     0.0880 C.ar    
   8 C8            -0.8573    -2.4886     0.0097 C.ar    
   9 C9            -1.9374    -3.3493     0.0174 C.ar    
  10 C10           -3.2263    -2.8455     0.0628 C.ar    
  11 C11           -3.4390    -1.4796     0.0954 C.ar    
  12 C12            3.5572     0.7629    -0.0221 C.3     
  13 C13            4.0711     1.5534    -1.2390 C.3     
  14 N14            4.9860     2.2208    -0.2927 N.am    
  15 C15            4.0735     1.9353     0.8316 C.3     
  16 C16            6.1766     2.8417    -0.4086 C.2     
  17 C17            6.8438     3.4255     0.8100 C.3     
  18 O18            6.7111     2.9305    -1.4937 O.2     
  19 C19            7.6285     2.3210     1.5818 C.3     
  20 C20            8.4622     1.5943     0.4827 C.3     
  21 C21            9.5401     2.6213     0.0669 C.3     
  22 C22            9.2562     3.8718     0.9540 C.3     
  23 C23            7.9217     4.4525     0.3943 C.3     
  24 C24            8.7445     3.1845     2.2690 C.3     
  25 Cl25          -1.6787    -5.0653    -0.0305 Cl      
  26 H26           -2.5341     0.4558     0.1139 H       
  27 H27            0.1479    -2.8820    -0.0261 H       
  28 H28           -4.0684    -3.5216     0.0684 H       
  29 H29           -4.4464    -1.0918     0.1308 H       
  30 H30            4.0879    -0.1737     0.1488 H       
  31 H31            4.5791     0.9370    -1.9806 H       
  32 H32            3.3275     2.2203    -1.6756 H       
  33 H33            3.3307     2.7143     1.0033 H       
  34 H34            4.5836     1.6238     1.7432 H       
  35 H35            6.1038     3.8911     1.4611 H       
  36 H36            7.0331     1.6787     2.2307 H       
  37 H37            8.9289     0.6976     0.8904 H       
  38 H38            7.8302     1.3412    -0.3685 H       
  39 H39           10.5368     2.2295     0.2703 H       
  40 H40            9.4380     2.8731    -0.9887 H       
  41 H41           10.0783     4.5801     1.0562 H       
  42 H42            7.9690     4.5351    -0.6915 H       
  43 H43            7.7131     5.4244     0.8415 H       
  44 H44            8.3282     3.9060     2.9720 H       
  45 H45            9.5129     2.5656     2.7324 H       
@<TRIPOS>BOND
   1    1    2 2
   2    1    5 1
   3    2    3 1
   4    2    6 1
   5    3    4 2
   6    4    5 1
   7    4   12 1
   8    6    7 ar
   9    6    8 ar
  10    7   11 ar
  11    7   26 1
  12    8    9 ar
  13    8   27 1
  14    9   10 ar
  15    9   25 1
  16   10   11 ar
  17   10   28 1
  18   11   29 1
  19   12   13 1
  20   12   15 1
  21   12   30 1
  22   13   14 1
  23   13   31 1
  24   13   32 1
  25   14   15 1
  26   14   16 am
  27   15   33 1
  28   15   34 1
  29   16   18 2
  30   16   17 1
  31   17   19 1
  32   17   23 1
  33   17   35 1
  34   19   20 1
  35   19   24 1
  36   19   36 1
  37   20   21 1
  38   20   37 1
  39   20   38 1
  40   21   22 1
  41   21   39 1
  42   21   40 1
  43   22   23 1
  44   22   24 1
  45   22   41 1
  46   23   42 1
  47   23   43 1
  48   24   44 1
  49   24   45 1

#	End of record

