#	Name: ASD01410716
#	Creating user name:	WinNT
#	Creation time:	15. 06. 2019 19:18

#	Modifying user name:	WinNT
#	Modification time:	15. 06. 2019 19:18

#	Program:	/corina/corina34_cracker 3.40 0067  02.08.2006

@<TRIPOS>MOLECULE
ASD01410716
  83   88    0    0    0
SMALL
NO_CHARGES


@<TRIPOS>ATOM
   1 N1            -0.0203     1.6464     0.0111 N.am    
   2 O2            -3.2143     1.0022     0.5667 O.3     
   3 N3            -5.6969    -1.4527     1.7140 N.am    
   4 S4             0.0021    -0.0041     0.0020 S.o2    
   5 O5            -0.9304    -0.3821    -1.0028 O.2     
   6 N6             1.5230    -0.4787    -0.5309 N.am    
   7 O7            -0.0995    -0.4145     1.3581 O.2     
   8 C8             1.5709    -1.5154    -1.3869 C.2     
   9 O9             2.6864    -1.7315    -1.8355 O.2     
  10 C10            0.5505    -2.4461    -1.8574 C.ar    
  11 C11            0.7935    -3.0725    -3.1064 C.ar    
  12 C12           -0.1473    -3.8697    -3.6795 C.ar    
  13 C13           -1.3498    -4.0599    -3.0051 C.ar    
  14 C14           -1.5605    -3.5373    -1.7038 C.ar    
  15 C15           -0.5879    -2.7438    -1.1203 C.ar    
  16 C16           -2.5288    -4.6966    -3.4008 C.2     
  17 C17           -3.4147    -4.5907    -2.4087 C.2     
  18 N18           -2.8002    -3.9421    -1.3331 N.pl3   
  19 C19           -2.7342    -5.3681    -4.7375 C.3     
  20 C20           -2.5522    -4.3415    -5.8573 C.3     
  21 C21           -1.7108    -6.4930    -4.9057 C.3     
  22 C22           -1.9189    -7.1734    -6.2602 C.3     
  23 C23           -1.7370    -6.1468    -7.3799 C.3     
  24 C24           -2.7603    -5.0219    -7.2118 C.3     
  25 C25           -4.8133    -5.0349    -2.3469 C.ar    
  26 C26           -5.8000    -4.2312    -1.7971 C.ar    
  27 C27           -5.5077    -2.8748    -1.2513 C.3     
  28 C28           -4.5752    -2.7645    -0.0881 C.3     
  29 C29           -3.4842    -3.7793    -0.0578 C.3     
  30 C30           -5.3100    -2.6695     1.2269 C.2     
  31 O31           -5.5591    -3.6781     1.8672 O.2     
  32 C32           -5.1656    -6.3018    -2.8294 C.ar    
  33 C33           -6.4669    -6.7520    -2.7806 C.ar    
  34 C34           -7.4455    -5.9288    -2.2331 C.ar    
  35 C35           -7.1073    -4.6791    -1.7496 C.ar    
  36 O36           -8.7331    -6.3576    -2.1711 O.3     
  37 C37           -9.0080    -7.6620    -2.6860 C.3     
  38 C38           -3.9535     0.2477     1.5343 C.3     
  39 C39           -5.2743    -0.2602     0.9432 C.3     
  40 C40           -2.1962     1.8442     1.1301 C.3     
  41 C41           -1.2934     2.3811     0.0201 C.3     
  42 C42            1.2362     2.3981     0.0031 C.3     
  43 C43           -6.4870    -1.3353     2.9492 C.3     
  44 H44            2.3443    -0.0465    -0.2313 H       
  45 H45            1.7372    -2.9161    -3.6114 H       
  46 H46            0.0356    -4.3344    -4.6374 H       
  47 H47           -0.7088    -2.3804    -0.1092 H       
  48 H48           -3.7411    -5.7828    -4.7849 H       
  49 H49           -3.2813    -3.5401    -5.7375 H       
  50 H50           -1.5453    -3.9267    -5.8099 H       
  51 H51           -0.7039    -6.0782    -4.8583 H       
  52 H52           -1.8405    -7.2243    -4.1080 H       
  53 H53           -1.1899    -7.9748    -6.3800 H       
  54 H54           -2.9258    -7.5881    -6.3076 H       
  55 H55           -0.7301    -5.7321    -7.3325 H       
  56 H56           -1.8852    -6.6315    -8.3449 H       
  57 H57           -3.7672    -5.4366    -7.2592 H       
  58 H58           -2.6307    -4.2905    -8.0095 H       
  59 H59           -5.0777    -2.2857    -2.0650 H       
  60 H60           -6.4513    -2.4095    -0.9756 H       
  61 H61           -4.0607    -1.8035    -0.2393 H       
  62 H62           -3.9177    -4.7380     0.2223 H       
  63 H63           -2.7567    -3.4865     0.6940 H       
  64 H64           -4.4029    -6.9458    -3.2425 H       
  65 H65           -6.7207    -7.7311    -3.1606 H       
  66 H66           -7.8787    -4.0440    -1.3381 H       
  67 H67           -8.4265    -8.4004    -2.1341 H       
  68 H68          -10.0703    -7.8797    -2.5757 H       
  69 H69           -8.7369    -7.7006    -3.7411 H       
  70 H70           -3.3542    -0.6037     1.8592 H       
  71 H71           -4.1640     0.8839     2.3955 H       
  72 H72           -5.1554    -0.5012    -0.1081 H       
  73 H73           -6.0382     0.5184     1.0400 H       
  74 H74           -2.6710     2.6823     1.6438 H       
  75 H75           -1.6054     1.2755     1.8468 H       
  76 H76           -1.0959     3.4399     0.1919 H       
  77 H77           -1.7863     2.2562    -0.9432 H       
  78 H78            2.0755     1.7027    -0.0086 H       
  79 H79            1.2758     3.0303    -0.8839 H       
  80 H80            1.2928     3.0208     0.8960 H       
  81 H81           -5.8154    -1.2506     3.8035 H       
  82 H82           -7.1181    -0.4484     2.8939 H       
  83 H83           -7.1130    -2.2200     3.0655 H       
@<TRIPOS>BOND
   1    1    4 am
   2    1   42 1
   3    1   41 1
   4    2   38 1
   5    2   40 1
   6    3   30 am
   7    3   43 1
   8    3   39 1
   9    4    5 2
  10    4    6 am
  11    4    7 2
  12    6    8 am
  13    6   44 1
  14    8    9 2
  15    8   10 1
  16   10   11 ar
  17   10   15 ar
  18   11   12 ar
  19   11   45 1
  20   12   13 ar
  21   12   46 1
  22   13   14 ar
  23   13   16 1
  24   14   15 ar
  25   14   18 1
  26   15   47 1
  27   16   17 2
  28   16   19 1
  29   17   18 1
  30   17   25 1
  31   18   29 1
  32   19   20 1
  33   19   21 1
  34   19   48 1
  35   20   24 1
  36   20   49 1
  37   20   50 1
  38   21   22 1
  39   21   51 1
  40   21   52 1
  41   22   23 1
  42   22   53 1
  43   22   54 1
  44   23   24 1
  45   23   55 1
  46   23   56 1
  47   24   57 1
  48   24   58 1
  49   25   26 ar
  50   25   32 ar
  51   26   27 1
  52   26   35 ar
  53   27   28 1
  54   27   59 1
  55   27   60 1
  56   28   29 1
  57   28   30 1
  58   28   61 1
  59   29   62 1
  60   29   63 1
  61   30   31 2
  62   32   33 ar
  63   32   64 1
  64   33   34 ar
  65   33   65 1
  66   34   35 ar
  67   34   36 1
  68   35   66 1
  69   36   37 1
  70   37   67 1
  71   37   68 1
  72   37   69 1
  73   38   39 1
  74   38   70 1
  75   38   71 1
  76   39   72 1
  77   39   73 1
  78   40   41 1
  79   40   74 1
  80   40   75 1
  81   41   76 1
  82   41   77 1
  83   42   78 1
  84   42   79 1
  85   42   80 1
  86   43   81 1
  87   43   82 1
  88   43   83 1

#	End of record

