#	Name: ASD01410493
#	Creating user name:	WinNT
#	Creation time:	15. 06. 2019 19:17

#	Modifying user name:	WinNT
#	Modification time:	15. 06. 2019 19:17

#	Program:	/corina/corina34_cracker 3.40 0067  02.08.2006

@<TRIPOS>MOLECULE
ASD01410493
  68   71    0    0    0
SMALL
NO_CHARGES


@<TRIPOS>ATOM
   1 C1             1.7331     4.9014    -1.3319 C.ar    
   2 C2             1.9263     4.1697    -2.4953 C.ar    
   3 C3             2.9674     3.2646    -2.5592 C.ar    
   4 N4             3.7754     3.0896    -1.5312 N.ar    
   5 C5             3.6235     3.7681    -0.4056 C.ar    
   6 C6             2.5978     4.6949    -0.2709 C.ar    
   7 O7             4.4774     3.5562     0.6271 O.3     
   8 C8             5.4040     2.5690     0.4972 C.ar    
   9 C9             6.5783     2.8083    -0.2122 C.ar    
  10 C10            7.5264     1.8114    -0.3494 C.ar    
  11 C11            7.3125     0.5644     0.2197 C.ar    
  12 C12            6.1303     0.3180     0.9359 C.ar    
  13 C13            5.1799     1.3342     1.0741 C.ar    
  14 F14            6.7920     4.0203    -0.7695 F       
  15 N15            8.2675    -0.4403     0.0806 N.am    
  16 C16            9.3176    -0.4933     0.9238 C.2     
  17 C17            8.1303    -1.4393    -0.9821 C.3     
  18 O18           10.1631    -1.3564     0.7883 O.2     
  19 C19            9.4411     0.4965     2.0117 C.ar    
  20 C20            8.3608     1.3207     2.3367 C.ar    
  21 C21            8.4822     2.2429     3.3533 C.ar    
  22 C22            9.6728     2.3556     4.0541 C.ar    
  23 C23           10.7482     1.5440     3.7391 C.ar    
  24 C24           10.6385     0.6098     2.7260 C.ar    
  25 C25            6.7905    -1.2448    -1.6950 C.3     
  26 C26            1.0096     4.3606    -3.6761 C.3     
  27 Cl27           9.8155     3.5211     5.3328 Cl      
  28 N28            1.5436     5.4132    -4.5438 N.pl3   
  29 N29            1.2664     6.6639    -4.4306 N.2     
  30 O30           10.5088    -1.6282    -1.3662 O.3     
  31 C31            9.2716    -1.2742    -1.9876 C.3     
  32 C32           11.6453    -1.5085    -2.2241 C.3     
  33 O33            5.7240    -1.5743    -0.8027 O.3     
  34 C34            4.4222    -1.4259    -1.3731 C.3     
  35 N35            2.3576     5.2131    -5.5190 N.2     
  36 C36            2.6319     6.3676    -6.0829 C.2     
  37 C37            1.9118     7.3250    -5.3647 C.2     
  38 F38           11.6885    -0.1827     2.4184 F       
  39 C39            5.8947    -1.0028     1.5428 C.2     
  40 O40            6.7682    -1.8473     1.5183 O.2     
  41 O41            4.7103    -1.2750     2.1255 O.3     
  42 C42            2.4289     5.4658     1.0129 C.3     
  43 F43            1.3337     6.3288     0.8981 F       
  44 F44            2.2106     4.5731     2.0677 F       
  45 F45            3.5856     6.2113     1.2648 F       
  46 H46            0.9292     5.6187    -1.2576 H       
  47 H47            3.1218     2.6925    -3.4622 H       
  48 H48            8.4349     2.0036    -0.9008 H       
  49 H49            4.2684     1.1513     1.6237 H       
  50 H50            8.1696    -2.4386    -0.5487 H       
  51 H51            7.4323     1.2355     1.7918 H       
  52 H52            7.6472     2.8801     3.6046 H       
  53 H53           11.6733     1.6374     4.2886 H       
  54 H54            6.6935    -0.2056    -2.0091 H       
  55 H55            6.7465    -1.8943    -2.5693 H       
  56 H56            0.9400     3.4283    -4.2365 H       
  57 H57            0.0187     4.6477    -3.3241 H       
  58 H58            9.0969    -1.9237    -2.8454 H       
  59 H59            9.3157    -0.2371    -2.3202 H       
  60 H60           11.7387    -0.4762    -2.5616 H       
  61 H61           12.5443    -1.7951    -1.6784 H       
  62 H62           11.5199    -2.1628    -3.0868 H       
  63 H63            4.2761    -0.3904    -1.6806 H       
  64 H64            4.3291    -2.0791    -2.2407 H       
  65 H65            3.6685    -1.6951    -0.6331 H       
  66 H66            3.2832     6.5412    -6.9267 H       
  67 H67            1.8895     8.3902    -5.5414 H       
  68 H68            4.6024    -2.1556     2.5103 H       
@<TRIPOS>BOND
   1    1    2 ar
   2    1    6 ar
   3    1   46 1
   4    2    3 ar
   5    2   26 1
   6    3    4 ar
   7    3   47 1
   8    4    5 ar
   9    5    6 ar
  10    5    7 1
  11    6   42 1
  12    7    8 1
  13    8    9 ar
  14    8   13 ar
  15    9   10 ar
  16    9   14 1
  17   10   11 ar
  18   10   48 1
  19   11   12 ar
  20   11   15 1
  21   12   13 ar
  22   12   39 1
  23   13   49 1
  24   15   16 am
  25   15   17 1
  26   16   18 2
  27   16   19 1
  28   17   25 1
  29   17   31 1
  30   17   50 1
  31   19   20 ar
  32   19   24 ar
  33   20   21 ar
  34   20   51 1
  35   21   22 ar
  36   21   52 1
  37   22   23 ar
  38   22   27 1
  39   23   24 ar
  40   23   53 1
  41   24   38 1
  42   25   33 1
  43   25   54 1
  44   25   55 1
  45   26   28 1
  46   26   56 1
  47   26   57 1
  48   28   35 1
  49   28   29 1
  50   29   37 2
  51   30   31 1
  52   30   32 1
  53   31   58 1
  54   31   59 1
  55   32   60 1
  56   32   61 1
  57   32   62 1
  58   33   34 1
  59   34   63 1
  60   34   64 1
  61   34   65 1
  62   35   36 2
  63   36   37 1
  64   36   66 1
  65   37   67 1
  66   39   40 2
  67   39   41 1
  68   41   68 1
  69   42   43 1
  70   42   44 1
  71   42   45 1

#	End of record

