#	Name: ASD01410931
#	Creating user name:	WinNT
#	Creation time:	15. 06. 2019 19:19

#	Modifying user name:	WinNT
#	Modification time:	15. 06. 2019 19:19

#	Program:	/corina/corina34_cracker 3.40 0067  02.08.2006

@<TRIPOS>MOLECULE
ASD01410931
  71   73    0    0    0
SMALL
NO_CHARGES


@<TRIPOS>ATOM
   1 S1             0.4845     2.1242    -0.3223 S.3     
   2 C2             0.0838     0.4293    -0.0824 C.2     
   3 C3             1.2371    -0.3200    -0.0618 C.2     
   4 C4             2.3905     0.4080    -0.2278 C.2     
   5 C5             2.2010     1.7505    -0.3853 C.2     
   6 C6             3.2455     2.7117    -0.5743 C.1     
   7 C7             4.1017     3.4998    -0.7292 C.1     
   8 C8             5.1754     4.4879    -0.9235 C.3     
   9 C9             6.5299     3.7765    -0.9204 C.3     
  10 C10            4.9765     5.2004    -2.2628 C.3     
  11 C11           -1.2246    -0.0853     0.0671 C.2     
  12 N12            1.2360    -1.7044     0.1140 N.am    
  13 O13           -2.2761     0.7575     0.1481 O.3     
  14 O14           -1.4030    -1.2881     0.1227 O.2     
  15 C15            1.1929    -2.2714     1.4642 C.3     
  16 C16            1.2744    -2.5199    -0.9583 C.2     
  17 C17            1.1847    -4.0128    -0.7733 C.3     
  18 O18            1.3812    -2.0523    -2.0723 O.2     
  19 C19            2.5926    -2.3641     2.0150 C.2     
  20 C20            0.9257    -4.6797    -2.1257 C.3     
  21 C21            2.0730    -4.3526    -3.0836 C.3     
  22 C22            3.3881    -4.8743    -2.5013 C.3     
  23 C23            3.6471    -4.2074    -1.1488 C.3     
  24 C24            2.4998    -4.5345    -0.1909 C.3     
  25 C25            4.5354    -4.5472    -3.4592 C.3     
  26 N26            2.8022    -2.8915     3.2374 N.am    
  27 O27            3.5304    -1.9642     1.3581 O.2     
  28 C28            5.1356     5.5139     0.2108 C.3     
  29 C29            4.1600    -2.9914     3.7938 C.3     
  30 C30            4.1576    -2.3757     5.1971 C.3     
  31 N31            3.1072    -3.0099     6.0047 N.3     
  32 C32            1.7744    -2.7513     5.4436 C.3     
  33 C33            1.6785    -3.3768     4.0530 C.3     
  34 C34            3.1830    -2.5718     7.4048 C.3     
  35 H35            3.3703    -0.0464    -0.2330 H       
  36 H36            6.5583     3.0456    -1.7285 H       
  37 H37            7.3249     4.5082    -1.0642 H       
  38 H38            6.6716     3.2690     0.0338 H       
  39 H39            4.0115     5.7072    -2.2650 H       
  40 H40            5.7715     5.9321    -2.4066 H       
  41 H41            5.0049     4.4695    -3.0709 H       
  42 H42           -3.1292     0.3134     0.2490 H       
  43 H43            0.5907    -1.6305     2.1083 H       
  44 H44            0.7506    -3.2669     1.4264 H       
  45 H45            0.3673    -4.2459    -0.0908 H       
  46 H46            0.8608    -5.7595    -1.9918 H       
  47 H47           -0.0112    -4.3081    -2.5406 H       
  48 H48            1.8885    -4.8277    -4.0471 H       
  49 H49            2.1379    -3.2728    -3.2175 H       
  50 H50            3.3232    -5.9541    -2.3674 H       
  51 H51            4.5840    -4.5791    -0.7339 H       
  52 H52            3.7120    -3.1276    -1.2827 H       
  53 H53            2.6843    -4.0594     0.7726 H       
  54 H54            2.4349    -5.6143    -0.0570 H       
  55 H55            4.6003    -3.4674    -3.5931 H       
  56 H56            5.4723    -4.9189    -3.0443 H       
  57 H57            4.3509    -5.0223    -4.4227 H       
  58 H58            5.2772     5.0063     1.1650 H       
  59 H59            5.9306     6.2456     0.0670 H       
  60 H60            4.1706     6.0207     0.2086 H       
  61 H61            4.4548    -4.0390     3.8541 H       
  62 H62            4.8577    -2.4479     3.1567 H       
  63 H63            5.1270    -2.5395     5.6677 H       
  64 H64            3.9642    -1.3055     5.1244 H       
  65 H65            1.0154    -3.1874     6.0932 H       
  66 H66            1.6142    -1.6758     5.3675 H       
  67 H67            0.7364    -3.0879     3.5872 H       
  68 H68            1.7302    -4.4622     4.1387 H       
  69 H69            3.0569    -1.4902     7.4544 H       
  70 H70            2.3942    -3.0563     7.9804 H       
  71 H71            4.1541    -2.8437     7.8186 H       
@<TRIPOS>BOND
   1    1    2 1
   2    1    5 1
   3    2    3 2
   4    2   11 1
   5    3    4 1
   6    3   12 1
   7    4    5 2
   8    4   35 1
   9    5    6 1
  10    6    7 3
  11    7    8 1
  12    8    9 1
  13    8   10 1
  14    8   28 1
  15    9   36 1
  16    9   37 1
  17    9   38 1
  18   10   39 1
  19   10   40 1
  20   10   41 1
  21   11   13 1
  22   11   14 2
  23   12   15 1
  24   12   16 am
  25   13   42 1
  26   15   19 1
  27   15   43 1
  28   15   44 1
  29   16   17 1
  30   16   18 2
  31   17   20 1
  32   17   24 1
  33   17   45 1
  34   19   26 am
  35   19   27 2
  36   20   21 1
  37   20   46 1
  38   20   47 1
  39   21   22 1
  40   21   48 1
  41   21   49 1
  42   22   23 1
  43   22   25 1
  44   22   50 1
  45   23   24 1
  46   23   51 1
  47   23   52 1
  48   24   53 1
  49   24   54 1
  50   25   55 1
  51   25   56 1
  52   25   57 1
  53   26   29 1
  54   26   33 1
  55   28   58 1
  56   28   59 1
  57   28   60 1
  58   29   30 1
  59   29   61 1
  60   29   62 1
  61   30   31 1
  62   30   63 1
  63   30   64 1
  64   31   32 1
  65   31   34 1
  66   32   33 1
  67   32   65 1
  68   32   66 1
  69   33   67 1
  70   33   68 1
  71   34   69 1
  72   34   70 1
  73   34   71 1

#	End of record

