#	Name: ASD01410704
#	Creating user name:	WinNT
#	Creation time:	15. 06. 2019 19:18

#	Modifying user name:	WinNT
#	Modification time:	15. 06. 2019 19:18

#	Program:	/corina/corina34_cracker 3.40 0067  02.08.2006

@<TRIPOS>MOLECULE
ASD01410704
  79   84    0    0    0
SMALL
NO_CHARGES


@<TRIPOS>ATOM
   1 N1            -0.0205     1.6604     0.0112 N.am    
   2 C2            -2.8710     2.4011    -1.9604 C.3     
   3 N3            -2.8570     0.8986    -5.3995 N.am    
   4 S4             0.0021    -0.0041     0.0020 S.o2    
   5 O5            -0.1346    -0.4122    -1.3495 O.2     
   6 N6             1.5147    -0.4884     0.5269 N.am    
   7 O7            -0.9178    -0.4135     1.0153 O.2     
   8 C8             2.5714    -0.3926    -0.2790 C.2     
   9 O9             3.6077    -0.7341     0.2995 O.2     
  10 C10            2.8282    -0.0191    -1.6423 C.ar    
  11 C11            4.0428     0.6801    -1.8474 C.ar    
  12 C12            4.4212     1.2006    -3.0477 C.ar    
  13 C13            3.5325     1.0195    -4.1167 C.ar    
  14 C14            2.3755     0.2182    -3.9686 C.ar    
  15 C15            2.0187    -0.3358    -2.7410 C.ar    
  16 C16            3.5185     1.5286    -5.4211 C.2     
  17 C17            2.4396     1.0308    -6.0687 C.2     
  18 N18            1.7714     0.1817    -5.1999 N.pl3   
  19 C19            4.5488     2.4962    -5.9518 C.3     
  20 C20            4.5292     3.7741    -5.1107 C.3     
  21 C21            5.9365     1.8564    -5.8752 C.3     
  22 C22            6.9806     2.8370    -6.4130 C.3     
  23 C23            6.9610     4.1149    -5.5719 C.3     
  24 C24            5.5733     4.7547    -5.6485 C.3     
  25 C25            2.0106     1.3388    -7.4441 C.ar    
  26 C26            0.6635     1.4290    -7.8117 C.ar    
  27 C27           -0.4471     1.1000    -6.9375 C.2     
  28 C28           -0.5400     0.2471    -5.9397 C.2     
  29 C29            0.6055    -0.6352    -5.5310 C.3     
  30 C30           -1.7742     0.1281    -5.1835 C.2     
  31 O31           -1.8384    -0.7362    -4.3047 O.2     
  32 C32            3.0012     1.4984    -8.4222 C.ar    
  33 C33            2.6743     1.8692    -9.7075 C.ar    
  34 C34            1.3424     2.0588   -10.0541 C.ar    
  35 C35            0.3555     1.8332    -9.1268 C.ar    
  36 F36            1.0196     2.4663   -11.3007 F       
  37 C37           -3.3418     1.4668    -3.0733 C.3     
  38 C38           -2.9779     2.0306    -4.4349 C.3     
  39 C39           -2.3860     1.5613    -0.7687 C.3     
  40 C40           -1.3412     2.3300     0.0337 C.3     
  41 C41            1.2118     2.4536     0.0037 C.3     
  42 C42           -3.8496     0.7037    -6.4519 C.3     
  43 H43           -2.0534     3.0205    -2.3258 H       
  44 H44           -3.6994     3.0351    -1.6450 H       
  45 H45            1.6289    -0.8470     1.4387 H       
  46 H46            4.7060     0.8084    -1.0038 H       
  47 H47            5.3596     1.7220    -3.1676 H       
  48 H48            1.1788    -1.0092    -2.6617 H       
  49 H49            4.3179     2.7402    -6.9888 H       
  50 H50            3.5406     4.2299    -5.1653 H       
  51 H51            4.7601     3.5301    -4.0737 H       
  52 H52            6.1673     1.6124    -4.8382 H       
  53 H53            5.9504     0.9460    -6.4744 H       
  54 H54            7.9692     2.3812    -6.3584 H       
  55 H55            6.7497     3.0810    -7.4500 H       
  56 H56            7.1919     3.8709    -4.5349 H       
  57 H57            7.7048     4.8135    -5.9550 H       
  58 H58            5.3425     4.9987    -6.6855 H       
  59 H59            5.5594     5.6651    -5.0493 H       
  60 H60           -1.3432     1.6601    -7.1416 H       
  61 H61            0.8532    -1.2974    -6.3603 H       
  62 H62            0.3144    -1.2263    -4.6663 H       
  63 H63            4.0362     1.2947    -8.1918 H       
  64 H64            3.4526     2.0109   -10.4429 H       
  65 H65           -0.6775     1.9689    -9.4119 H       
  66 H66           -2.8728     0.4926    -2.9408 H       
  67 H67           -4.4246     1.3501    -3.0066 H       
  68 H68           -2.0271     2.5573    -4.3801 H       
  69 H69           -3.7604     2.7080    -4.7759 H       
  70 H70           -3.2397     1.3352    -0.1246 H       
  71 H71           -1.9667     0.6282    -1.1373 H       
  72 H72           -1.6755     2.4173     1.0695 H       
  73 H73           -1.2346     3.3335    -0.3839 H       
  74 H74            2.0735     1.7862    -0.0081 H       
  75 H75            1.2308     3.0871    -0.8831 H       
  76 H76            1.2478     3.0776     0.8967 H       
  77 H77           -3.5823    -0.1699    -7.0463 H       
  78 H78           -4.8307     0.5508    -6.0021 H       
  79 H79           -3.8772     1.5848    -7.0930 H       
@<TRIPOS>BOND
   1    1    4 am
   2    1   41 1
   3    1   40 1
   4    2   37 1
   5    2   39 1
   6    2   43 1
   7    2   44 1
   8    3   30 am
   9    3   42 1
  10    3   38 1
  11    4    5 2
  12    4    6 am
  13    4    7 2
  14    6    8 am
  15    6   45 1
  16    8    9 2
  17    8   10 1
  18   10   11 ar
  19   10   15 ar
  20   11   12 ar
  21   11   46 1
  22   12   13 ar
  23   12   47 1
  24   13   14 ar
  25   13   16 1
  26   14   15 ar
  27   14   18 1
  28   15   48 1
  29   16   17 2
  30   16   19 1
  31   17   18 1
  32   17   25 1
  33   18   29 1
  34   19   20 1
  35   19   21 1
  36   19   49 1
  37   20   24 1
  38   20   50 1
  39   20   51 1
  40   21   22 1
  41   21   52 1
  42   21   53 1
  43   22   23 1
  44   22   54 1
  45   22   55 1
  46   23   24 1
  47   23   56 1
  48   23   57 1
  49   24   58 1
  50   24   59 1
  51   25   26 ar
  52   25   32 ar
  53   26   27 1
  54   26   35 ar
  55   27   28 2
  56   27   60 1
  57   28   29 1
  58   28   30 1
  59   29   61 1
  60   29   62 1
  61   30   31 2
  62   32   33 ar
  63   32   63 1
  64   33   34 ar
  65   33   64 1
  66   34   35 ar
  67   34   36 1
  68   35   65 1
  69   37   38 1
  70   37   66 1
  71   37   67 1
  72   38   68 1
  73   38   69 1
  74   39   40 1
  75   39   70 1
  76   39   71 1
  77   40   72 1
  78   40   73 1
  79   41   74 1
  80   41   75 1
  81   41   76 1
  82   42   77 1
  83   42   78 1
  84   42   79 1

#	End of record

