#	Name: ASD01913165
#	Creating user name:	WinNT
#	Creation time:	15. 06. 2019 20:01

#	Modifying user name:	WinNT
#	Modification time:	15. 06. 2019 20:01

#	Program:	/corina/corina34_cracker 3.40 0067  02.08.2006

@<TRIPOS>MOLECULE
ASD01913165
  45   48    0    0    0
SMALL
NO_CHARGES


@<TRIPOS>ATOM
   1 C1             0.0722     1.1619     1.5194 C.ar    
   2 N2             0.0756    -0.1304     1.2640 N.ar    
   3 C3             1.2036    -0.7867     1.0092 C.ar    
   4 C4             2.4292    -0.1147     1.0061 C.ar    
   5 C5             2.4513     1.2421     1.2713 C.ar    
   6 C6             1.2493     1.8872     1.5317 C.ar    
   7 C7             1.1626    -2.1919     0.7365 C.1     
   8 C8             1.1289    -3.3439     0.5129 C.1     
   9 C9             1.0878    -4.7491     0.2402 C.ar    
  10 C10            2.2746    -5.4496    -0.0299 C.ar    
  11 C11            2.2318    -6.8113    -0.2943 C.ar    
  12 C12            1.0280    -7.4813    -0.2928 C.ar    
  13 C13           -0.1607    -6.7942    -0.0252 C.ar    
  14 C14           -0.1293    -5.4276     0.2474 C.ar    
  15 O15            3.4625    -4.7954    -0.0327 O.3     
  16 C16            4.6293    -5.5705    -0.3152 C.3     
  17 C17           -1.4477    -7.5175    -0.0260 C.2     
  18 N18           -1.4659    -8.8606    -0.1358 N.am    
  19 C19           -2.6439    -9.7289    -0.0428 C.3     
  20 C20           -2.1804   -11.1518    -0.2269 C.ar    
  21 C21           -0.8132   -11.1545    -0.4192 C.ar    
  22 C22           -0.3122    -9.7330    -0.3773 C.3     
  23 C23           -2.8806   -12.3461    -0.2283 C.ar    
  24 C24           -2.2134   -13.5402    -0.4214 C.ar    
  25 C25           -0.8443   -13.5429    -0.6140 C.ar    
  26 C26           -0.1452   -12.3515    -0.6136 C.ar    
  27 O27           -2.4913    -6.9015     0.0723 O.2     
  28 H28           -0.8639     1.6629     1.7175 H       
  29 H29            3.3456    -0.6476     0.7999 H       
  30 H30            3.3831     1.7882     1.2763 H       
  31 H31            1.2342     2.9463     1.7424 H       
  32 H32            3.1457    -7.3478    -0.5024 H       
  33 H33            1.0020    -8.5410    -0.4995 H       
  34 H34           -1.0456    -4.8950     0.4547 H       
  35 H35            4.7310    -6.3590     0.4303 H       
  36 H36            4.5382    -6.0164    -1.3057 H       
  37 H37            5.5087    -4.9271    -0.2860 H       
  38 H38           -3.1098    -9.6158     0.9361 H       
  39 H39           -3.3573    -9.4686    -0.8248 H       
  40 H40            0.1586    -9.4790    -1.3271 H       
  41 H41            0.4061    -9.6182     0.4344 H       
  42 H42           -3.9501   -12.3443    -0.0779 H       
  43 H43           -2.7609   -14.4712    -0.4216 H       
  44 H44           -0.3218   -14.4760    -0.7651 H       
  45 H45            0.9243   -12.3538    -0.7641 H       
@<TRIPOS>BOND
   1    1    2 ar
   2    1    6 ar
   3    1   28 1
   4    2    3 ar
   5    3    4 ar
   6    3    7 1
   7    4    5 ar
   8    4   29 1
   9    5    6 ar
  10    5   30 1
  11    6   31 1
  12    7    8 3
  13    8    9 1
  14    9   10 ar
  15    9   14 ar
  16   10   11 ar
  17   10   15 1
  18   11   12 ar
  19   11   32 1
  20   12   13 ar
  21   12   33 1
  22   13   14 ar
  23   13   17 1
  24   14   34 1
  25   15   16 1
  26   16   35 1
  27   16   36 1
  28   16   37 1
  29   17   18 am
  30   17   27 2
  31   18   19 1
  32   18   22 1
  33   19   20 1
  34   19   38 1
  35   19   39 1
  36   20   21 ar
  37   20   23 ar
  38   21   22 1
  39   21   26 ar
  40   22   40 1
  41   22   41 1
  42   23   24 ar
  43   23   42 1
  44   24   25 ar
  45   24   43 1
  46   25   26 ar
  47   25   44 1
  48   26   45 1

#	End of record

