#	Name: ASD03950098
#	Creating user name:	WinNT
#	Creation time:	15. 06. 2019 20:48

#	Modifying user name:	WinNT
#	Modification time:	15. 06. 2019 20:48

#	Program:	/corina/corina34_cracker 3.40 0067  02.08.2006

@<TRIPOS>MOLECULE
ASD03950098
  43   45    0    0    0
SMALL
NO_CHARGES


@<TRIPOS>ATOM
   1 N1            -0.0169     1.3944     0.0097 N.pl3   
   2 N2             0.0021    -0.0041     0.0020 N.2     
   3 C3             1.2314    -0.4337    -0.0120 C.2     
   4 C4             2.1092     0.7333    -0.0141 C.ar    
   5 C5             3.4980     0.9019    -0.0268 C.ar    
   6 C6             4.0380     2.1690    -0.0256 C.ar    
   7 C7             3.2185     3.2867    -0.0114 C.ar    
   8 C8             1.8341     3.1469     0.0015 C.ar    
   9 C9             1.2667     1.8601    -0.0000 C.ar    
  10 C10            0.9675     4.3404     0.0161 C.2     
  11 O11           -0.2418     4.2136     0.0273 O.2     
  12 N12            1.5160     5.5715     0.0171 N.am    
  13 N13            1.2118    -4.6668    -0.0344 N.am    
  14 C14            1.6146    -4.0357     1.2298 C.3     
  15 C15            1.1387    -2.5796     1.2275 C.3     
  16 C16            1.6693    -1.8756    -0.0235 C.3     
  17 C17            1.1170    -2.5663    -1.2725 C.3     
  18 C18            1.5927    -4.0222    -1.2986 C.3     
  19 S19            0.3509    -6.0815    -0.0344 S.o2    
  20 O20            0.6724    -6.6873    -1.2790 O.2     
  21 O21            0.6990    -6.7036     1.1948 O.2     
  22 C22           -1.3848    -5.5550    -0.0123 C.3     
  23 C23           -2.2916    -6.7874    -0.0107 C.3     
  24 Br24           5.9164     2.3859    -0.0429 Br      
  25 H25           -0.8149     1.9457     0.0166 H       
  26 H26            4.1468     0.0385    -0.0373 H       
  27 H27            3.6577     4.2734    -0.0099 H       
  28 H28            2.4807     5.6727     0.0081 H       
  29 H29            0.9461     6.3564     0.0267 H       
  30 H30            1.1592    -4.5676     2.0651 H       
  31 H31            2.7002    -4.0652     1.3233 H       
  32 H32            0.0490    -2.5530     1.2253 H       
  33 H33            1.5137    -2.0729     2.1168 H       
  34 H34            2.7582    -1.9244    -0.0333 H       
  35 H35            0.0275    -2.5398    -1.2512 H       
  36 H36            1.4765    -2.0501    -2.1627 H       
  37 H37            2.6765    -4.0506    -1.4112 H       
  38 H38            1.1228    -4.5453    -2.1315 H       
  39 H39           -1.5738    -4.9637     0.8837 H       
  40 H40           -1.5929    -4.9520    -0.8961 H       
  41 H41           -3.3346    -6.4710     0.0027 H       
  42 H42           -2.1026    -7.3787    -0.9066 H       
  43 H43           -2.0835    -7.3904     0.8732 H       
@<TRIPOS>BOND
   1    1    2 1
   2    1    9 1
   3    1   25 1
   4    2    3 2
   5    3    4 1
   6    3   16 1
   7    4    5 ar
   8    4    9 ar
   9    5    6 ar
  10    5   26 1
  11    6    7 ar
  12    6   24 1
  13    7    8 ar
  14    7   27 1
  15    8    9 ar
  16    8   10 1
  17   10   11 2
  18   10   12 am
  19   12   28 1
  20   12   29 1
  21   13   14 1
  22   13   18 1
  23   13   19 am
  24   14   15 1
  25   14   30 1
  26   14   31 1
  27   15   16 1
  28   15   32 1
  29   15   33 1
  30   16   17 1
  31   16   34 1
  32   17   18 1
  33   17   35 1
  34   17   36 1
  35   18   37 1
  36   18   38 1
  37   19   20 2
  38   19   21 2
  39   19   22 1
  40   22   23 1
  41   22   39 1
  42   22   40 1
  43   23   41 1
  44   23   42 1
  45   23   43 1

#	End of record

