#	Name: ASD01478079
#	Creating user name:	WinNT
#	Creation time:	15. 06. 2019 19:21

#	Modifying user name:	WinNT
#	Modification time:	15. 06. 2019 19:21

#	Program:	/corina/corina34_cracker 3.40 0067  02.08.2006

@<TRIPOS>MOLECULE
ASD01478079
  37   38    0    0    0
SMALL
NO_CHARGES


@<TRIPOS>ATOM
   1 C1            -0.2810     1.2735     0.0636 C.3     
   2 C2            -0.0683    -0.1450    -0.1827 C.3     
   3 C3             0.3958    -0.8980     1.0808 C.3     
   4 C4             1.8704    -0.6605     1.2642 C.3     
   5 C5             2.1643     0.5210     2.2082 C.3     
   6 C6             1.2343     1.7251     1.9657 C.3     
   7 C7             1.0103     1.9941     0.5022 C.3     
   8 O8            -0.7751     1.8931    -1.1531 O.3     
   9 C9            -1.5856     2.9576    -1.0108 C.2     
  10 O10           -1.8725     3.3583     0.0991 O.2     
  11 O11           -2.0784     3.5783    -2.0985 O.3     
  12 C12           -2.8010     4.7104    -1.8886 C.ar    
  13 C13           -2.1559     5.8993    -1.5809 C.ar    
  14 C14           -2.8925     7.0486    -1.3685 C.ar    
  15 C15           -4.2715     7.0144    -1.4621 C.ar    
  16 C16           -4.9168     5.8306    -1.7687 C.ar    
  17 C17           -4.1843     4.6800    -1.9876 C.ar    
  18 N18           -5.0584     8.2471    -1.2332 N.pl3   
  19 O19           -4.4910     9.2903    -0.9626 O.2     
  20 O20           -6.2733     8.2181    -1.3153 O.2     
  21 H21           -1.0318     1.3874     0.8455 H       
  22 H22           -1.0012    -0.5861    -0.5337 H       
  23 H23            0.6880    -0.2590    -0.9593 H       
  24 H24           -0.1460    -0.5242     1.9496 H       
  25 H25            0.2090    -1.9651     0.9605 H       
  26 H26            2.3243    -1.5621     1.6756 H       
  27 H27            2.3180    -0.4548     0.2918 H       
  28 H28            2.0442     0.1860     3.2385 H       
  29 H29            3.1966     0.8391     2.0624 H       
  30 H30            0.2725     1.5289     2.4394 H       
  31 H31            1.6766     2.6101     2.4232 H       
  32 H32            1.8547     1.6148    -0.0732 H       
  33 H33            0.9046     3.0666     0.3390 H       
  34 H34           -1.0788     5.9264    -1.5070 H       
  35 H35           -2.3907     7.9745    -1.1289 H       
  36 H36           -5.9941     5.8064    -1.8409 H       
  37 H37           -4.6886     3.7565    -2.2311 H       
@<TRIPOS>BOND
   1    1    2 1
   2    1    7 1
   3    1    8 1
   4    1   21 1
   5    2    3 1
   6    2   22 1
   7    2   23 1
   8    3    4 1
   9    3   24 1
  10    3   25 1
  11    4    5 1
  12    4   26 1
  13    4   27 1
  14    5    6 1
  15    5   28 1
  16    5   29 1
  17    6    7 1
  18    6   30 1
  19    6   31 1
  20    7   32 1
  21    7   33 1
  22    8    9 1
  23    9   10 2
  24    9   11 1
  25   11   12 1
  26   12   13 ar
  27   12   17 ar
  28   13   14 ar
  29   13   34 1
  30   14   15 ar
  31   14   35 1
  32   15   16 ar
  33   15   18 1
  34   16   17 ar
  35   16   36 1
  36   17   37 1
  37   18   19 2
  38   18   20 2

#	End of record

