#	Name: ASD07930325
#	Creating user name:	WinNT
#	Creation time:	15. 06. 2019 21:12

#	Modifying user name:	WinNT
#	Modification time:	15. 06. 2019 21:12

#	Program:	/corina/corina34_cracker 3.40 0067  02.08.2006

@<TRIPOS>MOLECULE
ASD07930325
  32   33    0    0    0
SMALL
NO_CHARGES


@<TRIPOS>ATOM
   1 N1            -0.0055     1.4468     0.2167 N.pl3   
   2 C2             0.0021    -0.0041     0.0020 C.3     
   3 C3             0.8316    -0.6746     1.1058 C.3     
   4 S4             2.4968     0.0610     1.0954 S.o2    
   5 N5             2.1758     1.6960     1.1082 N.am    
   6 C6             1.1850     2.1438     0.2459 C.2     
   7 C7            -1.4107    -0.5268     0.0464 C.ar    
   8 C8            -2.1681    -0.3787     1.1962 C.ar    
   9 N9             1.3729     3.1878    -0.5115 N.2     
  10 C10            2.9036     2.6154     1.9864 C.3     
  11 O11            3.1633    -0.1821     2.3267 O.2     
  12 O12            3.1412    -0.1671    -0.1504 O.2     
  13 C13            0.6204    -0.3154    -1.3624 C.3     
  14 C14           -1.9524    -1.1487    -1.0621 C.ar    
  15 C15           -3.2496    -1.6282    -1.0217 C.ar    
  16 C16           -4.0049    -1.4854     0.1281 C.ar    
  17 C17           -3.4660    -0.8588     1.2359 C.ar    
  18 Br18          -3.9904    -2.4788    -2.5395 Br      
  19 F19           -1.6406     0.2335     2.2788 F       
  20 H20           -0.8463     1.9161     0.3339 H       
  21 H21            0.3607    -0.5045     2.0740 H       
  22 H22            0.9016    -1.7453     0.9137 H       
  23 H23            2.2163     3.6656    -0.4782 H       
  24 H24            3.7884     2.9875     1.4698 H       
  25 H25            2.2580     3.4530     2.2506 H       
  26 H26            3.2059     2.0899     2.8922 H       
  27 H27            1.6428     0.0613    -1.3924 H       
  28 H28            0.6258    -1.3938    -1.5213 H       
  29 H29            0.0332     0.1643    -2.1454 H       
  30 H30           -1.3633    -1.2603    -1.9604 H       
  31 H31           -5.0174    -1.8600     0.1589 H       
  32 H32           -4.0557    -0.7476     2.1338 H       
@<TRIPOS>BOND
   1    1    2 1
   2    1    6 1
   3    1   20 1
   4    2    3 1
   5    2    7 1
   6    2   13 1
   7    3    4 1
   8    3   21 1
   9    3   22 1
  10    4    5 am
  11    4   11 2
  12    4   12 2
  13    5    6 1
  14    5   10 1
  15    6    9 2
  16    7   14 ar
  17    7    8 ar
  18    8   19 1
  19    8   17 ar
  20    9   23 1
  21   10   24 1
  22   10   25 1
  23   10   26 1
  24   13   27 1
  25   13   28 1
  26   13   29 1
  27   14   15 ar
  28   14   30 1
  29   15   16 ar
  30   15   18 1
  31   16   17 ar
  32   16   31 1
  33   17   32 1

#	End of record

