#	Name: ASD04590363
#	Creating user name:	WinNT
#	Creation time:	15. 06. 2019 20:50

#	Modifying user name:	WinNT
#	Modification time:	15. 06. 2019 20:50

#	Program:	/corina/corina34_cracker 3.40 0067  02.08.2006

@<TRIPOS>MOLECULE
ASD04590363
  42   45    0    0    0
SMALL
NO_CHARGES


@<TRIPOS>ATOM
   1 C1            -0.0167     1.3832     0.0096 C.ar    
   2 C2             0.0021    -0.0041     0.0020 C.ar    
   3 C3            -1.1738    -0.7192     0.0094 C.ar    
   4 C4            -2.3977    -0.0431     0.0247 C.ar    
   5 C5            -2.4107     1.3631     0.0324 C.ar    
   6 C6            -1.2148     2.0662     0.0305 C.ar    
   7 N7            -3.6889    -0.4558     0.0353 N.2     
   8 C8            -4.4844     0.5863     0.0487 C.2     
   9 N9            -3.7414     1.7362     0.0475 N.pl3   
  10 C10           -5.9607     0.5285     0.0626 C.2     
  11 C11           -6.7466    -0.6471     0.0640 C.2     
  12 C12           -8.0494    -0.2732     0.0792 C.2     
  13 N13           -8.0930     1.0850     0.0872 N.pl3   
  14 N14           -6.7769     1.5640     0.0815 N.2     
  15 N15           -6.2638    -1.9657     0.0512 N.am    
  16 C16           -7.1281    -2.9999     0.0543 C.2     
  17 C17           -6.6208    -4.3851     0.0408 C.ar    
  18 O18           -8.3260    -2.7911     0.0682 O.2     
  19 C19           -6.3918    -5.0386    -1.1749 C.ar    
  20 C20           -5.9161    -6.3364    -1.1783 C.ar    
  21 C21           -5.6669    -6.9889     0.0154 C.ar    
  22 C22           -5.8910    -6.3506     1.2217 C.ar    
  23 C23           -6.3606    -5.0508     1.2435 C.ar    
  24 F24           -6.5784    -4.4288     2.4229 F       
  25 F25           -6.6354    -4.4033    -2.3420 F       
  26 C26           -1.1424    -2.2259     0.0005 C.3     
  27 F27            0.1859    -2.6646    -0.0149 F       
  28 F28           -1.7809    -2.7124     1.1463 F       
  29 F29           -1.8032    -2.6993    -1.1381 F       
  30 F30            1.6701     2.3932    -1.3201 F       
  31 F31            1.1085     3.3663     0.6691 F       
  32 C32            1.2811     2.1491     0.0014 C.3     
  33 F33            2.2695     1.3988     0.6474 F       
  34 H34            0.9470    -0.5269    -0.0102 H       
  35 H35           -1.2220     3.1462     0.0367 H       
  36 H36           -4.0847     2.6434     0.0561 H       
  37 H37           -8.9014    -0.9369     0.0839 H       
  38 H38           -8.8963     1.6285     0.0983 H       
  39 H39           -5.3082    -2.1322     0.0400 H       
  40 H40           -5.7387    -6.8423    -2.1158 H       
  41 H41           -5.2956    -8.0030     0.0055 H       
  42 H42           -5.6941    -6.8676     2.1492 H       
@<TRIPOS>BOND
   1    1    2 ar
   2    1   32 1
   3    1    6 ar
   4    2    3 ar
   5    2   34 1
   6    3    4 ar
   7    3   26 1
   8    4    5 ar
   9    4    7 1
  10    5    6 ar
  11    5    9 1
  12    6   35 1
  13    7    8 2
  14    8    9 1
  15    8   10 1
  16    9   36 1
  17   10   11 1
  18   10   14 2
  19   11   12 2
  20   11   15 1
  21   12   13 1
  22   12   37 1
  23   13   14 1
  24   13   38 1
  25   15   16 am
  26   15   39 1
  27   16   17 1
  28   16   18 2
  29   17   19 ar
  30   17   23 ar
  31   19   20 ar
  32   19   25 1
  33   20   21 ar
  34   20   40 1
  35   21   22 ar
  36   21   41 1
  37   22   23 ar
  38   22   42 1
  39   23   24 1
  40   26   27 1
  41   26   28 1
  42   26   29 1
  43   30   32 1
  44   31   32 1
  45   32   33 1

#	End of record

