#	Name: ASD01140530
#	Creating user name:	WinNT
#	Creation time:	15. 06. 2019 19:01

#	Modifying user name:	WinNT
#	Modification time:	15. 06. 2019 19:01

#	Program:	/corina/corina34_cracker 3.40 0067  02.08.2006

@<TRIPOS>MOLECULE
ASD01140530
  61   64    0    0    0
SMALL
NO_CHARGES


@<TRIPOS>ATOM
   1 C1            -0.3587     1.6918     0.2622 C.3     
   2 C2            -0.4430     0.1667     0.3480 C.3     
   3 C3             0.2700    -0.4520    -0.8560 C.3     
   4 C4             1.7384    -0.0220    -0.8544 C.3     
   5 C5             1.8226     1.5028    -0.9412 C.3     
   6 C6             1.1094     2.1240     0.2618 C.3     
   7 C7             1.1902     3.6482     0.1681 C.3     
   8 C8             3.2901     1.9349    -0.9441 C.3     
   9 C9             3.3736     3.4601    -1.0334 C.3     
  10 C10            2.6649     4.0800     0.1718 C.3     
  11 C11            0.5519     5.8168     1.3037 C.3     
  12 C12            0.4185     4.2844     1.3191 C.3     
  13 C13            2.0314     6.1414     1.3719 C.3     
  14 C14            2.4055     7.6201     1.3563 C.3     
  15 C15            2.6885     5.5941     0.0758 C.3     
  16 C16            4.0737     6.2474     0.1303 C.3     
  17 C17            3.7572     7.6927     0.6031 C.3     
  18 C18            1.7810     1.6527     1.5531 C.3     
  19 C19            2.6540     5.4630     2.5938 C.3     
  20 C20            2.5641     8.1335     2.7642 C.2     
  21 C21            1.3643     8.6441     3.5197 C.3     
  22 O22            3.6527     8.1357     3.2871 O.2     
  23 C23            0.1850    -1.9772    -0.7709 C.3     
  24 O24           -0.3556    -0.0063    -2.0610 O.3     
  25 H25            3.1441     3.7467     1.0923 H       
  26 H26            1.3447     1.8409    -1.8606 H       
  27 H27            0.7321     3.9680    -0.7678 H       
  28 H28            2.1344     5.9267    -0.8020 H       
  29 O29            1.7681     9.0719     4.8220 O.3     
  30 H30           -0.8373     2.0308    -0.6565 H       
  31 H31           -0.8667     2.1324     1.1201 H       
  32 H32            0.0350    -0.1725     1.2671 H       
  33 H33           -1.4889    -0.1400     0.3479 H       
  34 H34            2.2153    -0.3606     0.0654 H       
  35 H35            2.2472    -0.4634    -1.7114 H       
  36 H36            3.7697     1.5981    -0.0251 H       
  37 H37            3.7972     1.4926    -1.8016 H       
  38 H38            4.4194     3.7672    -1.0376 H       
  39 H39            2.8920     3.7973    -1.9512 H       
  40 H40            0.1265     6.2168     0.3833 H       
  41 H41            0.0388     6.2424     2.1661 H       
  42 H42           -0.6348     4.0172     1.2331 H       
  43 H43            0.8064     3.9020     2.2632 H       
  44 H44            1.6467     8.1961     0.8267 H       
  45 H45            4.7128     5.7370     0.8509 H       
  46 H46            4.5349     6.2568    -0.8573 H       
  47 H47            3.6711     8.3571    -0.2567 H       
  48 H48            4.5404     8.0470     1.2733 H       
  49 H49            1.7225     0.5662     1.6176 H       
  50 H50            2.8266     1.9608     1.5523 H       
  51 H51            1.2725     2.0954     2.4096 H       
  52 H52            2.4778     4.3886     2.5420 H       
  53 H53            3.7269     5.6549     2.6086 H       
  54 H54            2.2010     5.8623     3.5012 H       
  55 H55            0.9262     9.4843     2.9809 H       
  56 H56            0.6266     7.8470     3.6116 H       
  57 H57           -0.8611    -2.2834    -0.7714 H       
  58 H58            0.6930    -2.4179    -1.6287 H       
  59 H59            0.6626    -2.3170     0.1482 H       
  60 H60           -1.2904    -0.2440    -2.1299 H       
  61 H61            1.0450     9.4137     5.3655 H       
@<TRIPOS>BOND
   1    1    2 1
   2    1    6 1
   3    1   30 1
   4    1   31 1
   5    2    3 1
   6    2   32 1
   7    2   33 1
   8    3    4 1
   9    3   23 1
  10    3   24 1
  11    4    5 1
  12    4   34 1
  13    4   35 1
  14    5    6 1
  15    5    8 1
  16    5   26 1
  17    6    7 1
  18    6   18 1
  19    7   10 1
  20    7   27 1
  21    7   12 1
  22    8    9 1
  23    8   36 1
  24    8   37 1
  25    9   10 1
  26    9   38 1
  27    9   39 1
  28   10   15 1
  29   10   25 1
  30   11   12 1
  31   11   13 1
  32   11   40 1
  33   11   41 1
  34   12   42 1
  35   12   43 1
  36   13   15 1
  37   13   19 1
  38   13   14 1
  39   14   17 1
  40   14   20 1
  41   14   44 1
  42   15   16 1
  43   15   28 1
  44   16   17 1
  45   16   45 1
  46   16   46 1
  47   17   47 1
  48   17   48 1
  49   18   49 1
  50   18   50 1
  51   18   51 1
  52   19   52 1
  53   19   53 1
  54   19   54 1
  55   20   21 1
  56   20   22 2
  57   21   29 1
  58   21   55 1
  59   21   56 1
  60   23   57 1
  61   23   58 1
  62   23   59 1
  63   24   60 1
  64   29   61 1

#	End of record

