#	Name: ASD03331476
#	Creating user name:	WinNT
#	Creation time:	15. 06. 2019 20:39

#	Modifying user name:	WinNT
#	Modification time:	15. 06. 2019 20:39

#	Program:	/corina/corina34_cracker 3.40 0067  02.08.2006

@<TRIPOS>MOLECULE
ASD03331476
  52   54    0    0    0
SMALL
NO_CHARGES


@<TRIPOS>ATOM
   1 C1            -0.0349     1.3752     0.2313 C.ar    
   2 C2            -0.0164    -0.0055     0.2248 C.ar    
   3 C3            -1.1986    -0.7153     0.0101 C.ar    
   4 C4            -2.3933    -0.0255    -0.1968 C.ar    
   5 C5            -2.4020     1.3542    -0.1885 C.ar    
   6 C6            -1.2280     2.0557     0.0300 C.ar    
   7 C7            -1.1848    -2.1944     0.0016 C.2     
   8 N8            -2.2216    -3.0034     0.3890 N.pl3   
   9 C9            -1.7863    -4.2804     0.2726 C.2     
  10 C10           -0.5218    -4.2435    -0.2289 C.2     
  11 N11           -0.1815    -2.9449    -0.3829 N.2     
  12 C12           -3.5466    -2.5275     0.8032 C.3     
  13 C13           -4.2018    -3.5174     1.7665 C.3     
  14 C14           -4.9187    -4.6218     0.9744 C.3     
  15 N15           -3.9456    -5.3418     0.1683 N.am    
  16 C16           -2.5765    -5.4965     0.6755 C.3     
  17 C17            0.3203    -5.4071    -0.5510 C.2     
  18 O18           -0.1034    -6.5322    -0.3719 O.2     
  19 O19            1.5613    -5.2250    -1.0446 O.3     
  20 F20            1.1083     2.0645     0.4393 F       
  21 F21           -1.2422     3.4066     0.0376 F       
  22 C22           -5.5945    -5.5912     1.9463 C.3     
  23 C23           -4.2953    -5.8594    -1.0260 C.2     
  24 O24           -5.4311    -5.7262    -1.4367 O.2     
  25 O25           -3.3862    -6.5240    -1.7639 O.3     
  26 C26           -3.8331    -7.0544    -3.0395 C.3     
  27 C27           -4.3225    -5.9071    -3.9256 C.3     
  28 C28           -2.6707    -7.7714    -3.7291 C.3     
  29 C29           -4.9771    -8.0436    -2.8079 C.3     
  30 H30            0.9112    -0.5350     0.3851 H       
  31 H31           -3.3105    -0.5708    -0.3636 H       
  32 H32           -3.3270     1.8882    -0.3487 H       
  33 H33           -3.4425    -1.5615     1.2973 H       
  34 H34           -4.1781    -2.4128    -0.0778 H       
  35 H35           -3.4370    -3.9653     2.4010 H       
  36 H36           -4.9250    -2.9914     2.3897 H       
  37 H37           -5.6703    -4.1741     0.3242 H       
  38 H38           -2.1233    -6.3892     0.2445 H       
  39 H39           -2.5941    -5.5803     1.7621 H       
  40 H40            2.0766    -6.0193    -1.2409 H       
  41 H41           -6.3205    -5.0501     2.5532 H       
  42 H42           -6.1028    -6.3743     1.3838 H       
  43 H43           -4.8415    -6.0397     2.5944 H       
  44 H44           -3.5074    -5.2024    -4.0906 H       
  45 H45           -4.6579    -6.3053    -4.8832 H       
  46 H46           -5.1506    -5.3963    -3.4343 H       
  47 H47           -2.3221    -8.5887    -3.0978 H       
  48 H48           -3.0062    -8.1696    -4.6867 H       
  49 H49           -1.8557    -7.0667    -3.8941 H       
  50 H50           -5.8053    -7.5328    -2.3166 H       
  51 H51           -5.3126    -8.4418    -3.7655 H       
  52 H52           -4.6285    -8.8609    -2.1766 H       
@<TRIPOS>BOND
   1    1    2 ar
   2    1   20 1
   3    1    6 ar
   4    2    3 ar
   5    2   30 1
   6    3    4 ar
   7    3    7 1
   8    4    5 ar
   9    4   31 1
  10    5    6 ar
  11    5   32 1
  12    6   21 1
  13    7    8 1
  14    7   11 2
  15    8    9 1
  16    8   12 1
  17    9   10 2
  18    9   16 1
  19   10   11 1
  20   10   17 1
  21   12   13 1
  22   12   33 1
  23   12   34 1
  24   13   14 1
  25   13   35 1
  26   13   36 1
  27   14   15 1
  28   14   22 1
  29   14   37 1
  30   15   16 1
  31   15   23 am
  32   16   38 1
  33   16   39 1
  34   17   18 2
  35   17   19 1
  36   19   40 1
  37   22   41 1
  38   22   42 1
  39   22   43 1
  40   23   24 2
  41   23   25 1
  42   25   26 1
  43   26   27 1
  44   26   28 1
  45   26   29 1
  46   27   44 1
  47   27   45 1
  48   27   46 1
  49   28   47 1
  50   28   48 1
  51   28   49 1
  52   29   50 1
  53   29   51 1
  54   29   52 1

#	End of record

