#	Name: ASD01882269
#	Creating user name:	WinNT
#	Creation time:	15. 06. 2019 19:44

#	Modifying user name:	WinNT
#	Modification time:	15. 06. 2019 19:44

#	Program:	/corina/corina34_cracker 3.40 0067  02.08.2006

@<TRIPOS>MOLECULE
ASD01882269
  50   54    0    0    0
SMALL
NO_CHARGES


@<TRIPOS>ATOM
   1 C1             0.7899     1.1162    -0.4976 C.3     
   2 N2             0.5791    -0.3256    -0.3115 N.3     
   3 C3            -0.6720    -0.5855     0.4133 C.3     
   4 C4            -0.9455    -2.0674     0.4280 C.2     
   5 C5            -1.6026    -2.6742    -0.6562 C.2     
   6 C6            -1.8504    -4.0007    -0.6479 C.2     
   7 N7            -1.4669    -4.7701     0.4109 N.pl3   
   8 C8            -0.8226    -4.2057     1.4844 C.2     
   9 C9            -0.5524    -2.8236     1.4880 C.2     
  10 C10           -1.5753    -6.0960     0.6967 C.2     
  11 N11           -1.0265    -6.2922     1.8677 N.2     
  12 N12           -0.5787    -5.1830     2.3422 N.2     
  13 C13            0.1540    -2.1881     2.6576 C.3     
  14 F14           -0.7817    -1.5415     3.4723 F       
  15 F15            0.8128    -3.1760     3.3974 F       
  16 F16            1.0868    -1.2567     2.1889 F       
  17 C17           -2.2118    -7.1466    -0.1763 C.3     
  18 C18           -1.1557    -7.7434    -1.1086 C.3     
  19 C19           -1.5788    -8.9146    -1.9975 C.3     
  20 C20           -1.3418    -7.5340    -2.6128 C.3     
  21 C21            2.2232     1.4771    -0.0995 C.3     
  22 C22            2.5091     2.9075    -0.5744 C.3     
  23 O23            2.4655     2.9253    -2.0019 O.3     
  24 C24            1.3960     2.3512    -2.6117 C.ar    
  25 C25            0.5595     1.4744    -1.9439 C.ar    
  26 C26            1.1467     2.6612    -3.9452 C.ar    
  27 C27            0.0718     2.0962    -4.6001 C.ar    
  28 C28           -0.7610     1.2182    -3.9307 C.ar    
  29 C29           -0.5169     0.9087    -2.6071 C.ar    
  30 H30            0.0895     1.6690     0.1284 H       
  31 H31            0.5916    -0.8101    -1.1964 H       
  32 H32           -0.5809    -0.2226     1.4371 H       
  33 H33           -1.4935    -0.0693    -0.0834 H       
  34 H34           -1.9112    -2.0755    -1.5004 H       
  35 H35           -2.3566    -4.4565    -1.4859 H       
  36 H36           -2.6305    -7.9344     0.4499 H       
  37 H37           -3.0060    -6.6935    -0.7697 H       
  38 H38           -0.1362    -7.7468    -0.7230 H       
  39 H39           -0.8375    -9.6884    -2.1970 H       
  40 H40           -2.6096    -9.2600    -1.9180 H       
  41 H41           -2.2167    -6.9710    -2.9381 H       
  42 H42           -0.4446    -7.3995    -3.2170 H       
  43 H43            2.3286     1.4216     0.9840 H       
  44 H44            2.9210     0.7864    -0.5729 H       
  45 H45            1.7536     3.5846    -0.1756 H       
  46 H46            3.4970     3.2171    -0.2333 H       
  47 H47            1.7965     3.3465    -4.4691 H       
  48 H48           -0.1193     2.3397    -5.6348 H       
  49 H49           -1.6022     0.7749    -4.4428 H       
  50 H50           -1.1684     0.2224    -2.0867 H       
@<TRIPOS>BOND
   1    1    2 1
   2    1   21 1
   3    1   25 1
   4    1   30 1
   5    2    3 1
   6    2   31 1
   7    3    4 1
   8    3   32 1
   9    3   33 1
  10    4    5 1
  11    4    9 2
  12    5    6 2
  13    5   34 1
  14    6    7 1
  15    6   35 1
  16    7    8 1
  17    7   10 1
  18    8    9 1
  19    8   12 2
  20    9   13 1
  21   10   11 2
  22   10   17 1
  23   11   12 1
  24   13   14 1
  25   13   15 1
  26   13   16 1
  27   17   18 1
  28   17   36 1
  29   17   37 1
  30   18   19 1
  31   18   20 1
  32   18   38 1
  33   19   20 1
  34   19   39 1
  35   19   40 1
  36   20   41 1
  37   20   42 1
  38   21   22 1
  39   21   43 1
  40   21   44 1
  41   22   23 1
  42   22   45 1
  43   22   46 1
  44   23   24 1
  45   24   25 ar
  46   24   26 ar
  47   25   29 ar
  48   26   27 ar
  49   26   47 1
  50   27   28 ar
  51   27   48 1
  52   28   29 ar
  53   28   49 1
  54   29   50 1

#	End of record

