#	Name: ASD09690001
#	Creating user name:	WinNT
#	Creation time:	15. 06. 2019 21:22

#	Modifying user name:	WinNT
#	Modification time:	15. 06. 2019 21:22

#	Program:	/corina/corina34_cracker 3.40 0067  02.08.2006

@<TRIPOS>MOLECULE
ASD09690001
  47   49    0    0    0
SMALL
NO_CHARGES


@<TRIPOS>ATOM
   1 O1            -0.0173     1.4248     0.0099 O.3     
   2 C2             0.0021    -0.0041     0.0020 C.3     
   3 C3             0.7130    -0.5428     1.2636 C.3     
   4 C4            -0.3766    -1.3660     1.9858 C.3     
   5 O5            -1.3083    -1.7371     0.9465 O.3     
   6 C6            -1.4329    -0.5655     0.1112 C.3     
   7 C7            -1.9606    -0.9513    -1.2721 C.3     
   8 O8            -3.3028    -1.4276    -1.1541 O.3     
   9 P9            -4.1719    -1.9219    -2.4160 P.3     
  10 O10           -3.4319    -2.9788    -3.1411 O.2     
  11 O11           -5.5797    -2.5092    -1.9010 O.3     
  12 P12           -6.6829    -3.4918    -2.5410 P.3     
  13 O13           -6.0079    -4.6513    -3.1656 O.2     
  14 O14           -7.6769    -4.0084    -1.3846 O.3     
  15 P15           -8.6830    -5.2581    -1.2506 P.3     
  16 O16           -9.3809    -5.4698    -2.5385 O.2     
  17 O17           -7.8482    -6.5807    -0.8688 O.3     
  18 O18           -9.7649    -4.9548    -0.0975 O.3     
  19 O19           -7.5266    -2.6963    -3.6580 O.3     
  20 O20           -4.4382    -0.6790    -3.4042 O.3     
  21 N21            0.2088    -2.5619     2.5968 N.pl3   
  22 C22            0.2589    -3.8087     2.0437 C.2     
  23 N23            0.8486    -4.6305     2.8618 N.2     
  24 C24            1.2110    -3.9634     3.9845 C.2     
  25 C25            0.8106    -2.6319     3.8239 C.2     
  26 N26            1.0498    -1.7458     4.7975 N.2     
  27 C27            1.6564    -2.1031     5.9074 C.2     
  28 N28            1.8797    -1.1593     6.8783 N.pl3   
  29 N29            2.0698    -3.3841     6.1222 N.am    
  30 C30            1.8668    -4.3334     5.1819 C.2     
  31 O31            2.2329    -5.4819     5.3645 O.2     
  32 H32            0.8606     1.8301     0.0037 H       
  33 H33            0.4914    -0.3735    -0.8992 H       
  34 H34            1.5523    -1.1805     0.9861 H       
  35 H35            1.0497     0.2807     1.8933 H       
  36 H36           -0.8736    -0.7574     2.7413 H       
  37 H37           -2.0919     0.1658     0.5792 H       
  38 H38           -1.9409    -0.0786    -1.9249 H       
  39 H39           -1.3326    -1.7355    -1.6948 H       
  40 H40           -7.3643    -6.5131    -0.0343 H       
  41 H41          -10.4049    -5.6669     0.0385 H       
  42 H42           -7.9964    -1.9222    -3.3187 H       
  43 H43           -4.9200     0.0527    -2.9949 H       
  44 H44           -0.1327    -4.0734     1.0726 H       
  45 H45            1.5910    -0.2437     6.7401 H       
  46 H46            2.3262    -1.4079     7.7027 H       
  47 H47            2.5150    -3.6147     6.9525 H       
@<TRIPOS>BOND
   1    1    2 1
   2    1   32 1
   3    2    3 1
   4    2    6 1
   5    2   33 1
   6    3    4 1
   7    3   34 1
   8    3   35 1
   9    4    5 1
  10    4   21 1
  11    4   36 1
  12    5    6 1
  13    6    7 1
  14    6   37 1
  15    7    8 1
  16    7   38 1
  17    7   39 1
  18    8    9 1
  19    9   10 2
  20    9   11 1
  21    9   20 1
  22   11   12 1
  23   12   13 2
  24   12   14 1
  25   12   19 1
  26   14   15 1
  27   15   16 2
  28   15   17 1
  29   15   18 1
  30   17   40 1
  31   18   41 1
  32   19   42 1
  33   20   43 1
  34   21   22 1
  35   21   25 1
  36   22   23 2
  37   22   44 1
  38   23   24 1
  39   24   25 2
  40   24   30 1
  41   25   26 1
  42   26   27 2
  43   27   28 1
  44   27   29 1
  45   28   45 1
  46   28   46 1
  47   29   30 am
  48   29   47 1
  49   30   31 2

#	End of record

