#	Name: ASD03092800
#	Creating user name:	WinNT
#	Creation time:	15. 06. 2019 20:33

#	Modifying user name:	WinNT
#	Modification time:	15. 06. 2019 20:33

#	Program:	/corina/corina34_cracker 3.40 0067  02.08.2006

@<TRIPOS>MOLECULE
ASD03092800
  50   52    0    0    0
SMALL
NO_CHARGES


@<TRIPOS>ATOM
   1 C1             0.5929     1.7948     0.0699 C.3     
   2 C2             0.5122     0.2671     0.0897 C.3     
   3 C3             1.2837    -0.2689     1.2973 C.3     
   4 C4            -0.9523    -0.1650     0.1875 C.3     
   5 C5             1.1151    -0.2843    -1.1766 C.2     
   6 O6             1.5651     0.4704    -2.0126 O.2     
   7 N7             1.1542    -1.6160    -1.3802 N.am    
   8 C8             1.7403    -2.1520    -2.6112 C.3     
   9 H9             1.5243    -1.4777    -3.4400 H       
  10 C10            3.2552    -2.2814    -2.4405 C.3     
  11 C11            3.8673    -2.8412    -3.7262 C.3     
  12 C12            3.2676    -4.2179    -4.0192 C.3     
  13 H13            3.7037    -4.6167    -4.9351 H       
  14 C14            1.7527    -4.0885    -4.1899 C.3     
  15 C15            1.1406    -3.5287    -2.9042 C.3     
  16 N16            3.5579    -5.1241    -2.9053 N.pl3   
  17 C17            3.1756    -4.9582    -1.6103 C.2     
  18 N18            3.6027    -5.9519    -0.8871 N.2     
  19 C19            4.2889    -6.8242    -1.6695 C.ar    
  20 C20            4.9465    -8.0311    -1.4194 C.ar    
  21 C21            5.5633    -8.6950    -2.4421 C.ar    
  22 C22            5.5446    -8.1830    -3.7313 C.ar    
  23 C23            4.9016    -6.9934    -4.0015 C.ar    
  24 C24            4.2649    -6.3078    -2.9764 C.ar    
  25 C25            6.2319    -8.9317    -4.8440 C.3     
  26 F26            6.8094   -10.0991    -4.3332 F       
  27 F27            5.2961    -9.2664    -5.8285 F       
  28 F28            7.2285    -8.1245    -5.4031 F       
  29 H29            1.6363     2.1026     0.0003 H       
  30 H30            0.0433     2.1766    -0.7904 H       
  31 H31            0.1569     2.1936     0.9859 H       
  32 H32            0.8477     0.1299     2.2132 H       
  33 H33            1.2262    -1.3573     1.3114 H       
  34 H34            2.3270     0.0389     1.2276 H       
  35 H35           -1.5020     0.2168    -0.6728 H       
  36 H36           -1.0099    -1.2534     0.2015 H       
  37 H37           -1.3884     0.2338     1.1034 H       
  38 H38            0.7943    -2.2196    -0.7115 H       
  39 H39            3.6825    -1.3006    -2.2317 H       
  40 H40            3.4712    -2.9557    -1.6117 H       
  41 H41            3.6514    -2.1669    -4.5549 H       
  42 H42            4.9466    -2.9334    -3.6046 H       
  43 H43            1.5367    -3.4142    -5.0187 H       
  44 H44            1.3255    -5.0693    -4.3987 H       
  45 H45            1.3565    -4.2030    -2.0755 H       
  46 H46            0.0613    -3.4365    -3.0259 H       
  47 H47            2.6016    -4.1231    -1.2369 H       
  48 H48            4.9675    -8.4386    -0.4194 H       
  49 H49            6.0710    -9.6276    -2.2446 H       
  50 H50            4.8903    -6.5989    -5.0068 H       
@<TRIPOS>BOND
   1    1    2 1
   2    1   29 1
   3    1   30 1
   4    1   31 1
   5    2    3 1
   6    2    4 1
   7    2    5 1
   8    3   32 1
   9    3   33 1
  10    3   34 1
  11    4   35 1
  12    4   36 1
  13    4   37 1
  14    5    6 2
  15    5    7 am
  16    7    8 1
  17    7   38 1
  18    8    9 1
  19    8   15 1
  20    8   10 1
  21   10   11 1
  22   10   39 1
  23   10   40 1
  24   11   12 1
  25   11   41 1
  26   11   42 1
  27   12   13 1
  28   12   14 1
  29   12   16 1
  30   14   15 1
  31   14   43 1
  32   14   44 1
  33   15   45 1
  34   15   46 1
  35   16   24 1
  36   16   17 1
  37   17   18 2
  38   17   47 1
  39   18   19 1
  40   19   24 ar
  41   19   20 ar
  42   20   21 ar
  43   20   48 1
  44   21   22 ar
  45   21   49 1
  46   22   23 ar
  47   22   25 1
  48   23   24 ar
  49   23   50 1
  50   25   26 1
  51   25   27 1
  52   25   28 1

#	End of record

