#	Name: ASD03090129
#	Creating user name:	WinNT
#	Creation time:	15. 06. 2019 20:28

#	Modifying user name:	WinNT
#	Modification time:	15. 06. 2019 20:28

#	Program:	/corina/corina34_cracker 3.40 0067  02.08.2006

@<TRIPOS>MOLECULE
ASD03090129
  54   57    0    0    0
SMALL
NO_CHARGES


@<TRIPOS>ATOM
   1 C1            -0.0186     1.5024     0.0154 C.2     
   2 C2             0.0014    -0.0045     0.0123 C.3     
   3 O3             1.0237     2.1227     0.0093 O.2     
   4 N4            -1.1946     2.1607     0.0195 N.am    
   5 C5             1.4287    -0.4880     0.0013 C.ar    
   6 C6             2.0905    -0.7116     1.1947 C.ar    
   7 C7             3.3986    -1.1547     1.1881 C.ar    
   8 C8             4.0493    -1.3757    -0.0191 C.ar    
   9 C9             3.3815    -1.1500    -1.2160 C.ar    
  10 C10            2.0717    -0.7123    -1.2023 C.ar    
  11 N11            5.3724    -1.8233    -0.0293 N.pl3   
  12 C12            6.0571    -2.0558    -1.3034 C.3     
  13 C13            7.7080    -3.8649    -0.9206 C.ar    
  14 C14            7.4625    -2.5312    -1.0389 C.ar    
  15 C15            8.4912    -1.5990    -0.9197 C.ar    
  16 C16            9.7716    -1.9949    -0.6810 C.ar    
  17 C17           10.0636    -3.3632    -0.5523 C.ar    
  18 C18           11.3732    -3.8101    -0.3062 C.ar    
  19 C19           11.6186    -5.1434    -0.1878 C.ar    
  20 C20           10.5896    -6.0759    -0.3074 C.ar    
  21 C21            9.3095    -5.6803    -0.5461 C.ar    
  22 C22            9.0171    -4.3115    -0.6735 C.ar    
  23 C23           -1.2153     3.5574     0.1329 C.ar    
  24 C24           -2.1839     4.2939    -0.5363 C.ar    
  25 C25           -2.2048     5.6696    -0.4248 C.ar    
  26 C26           -1.2567     6.3175     0.3575 C.ar    
  27 C27           -0.2879     5.5802     1.0273 C.ar    
  28 C28           -0.2708     4.2041     0.9191 C.ar    
  29 S29           -1.2824     8.0736     0.4997 S.3     
  30 C30            0.1193     8.4145     1.5995 C.3     
  31 F31           -0.0833     7.7727     2.8260 F       
  32 F32            1.2978     7.9397     1.0139 F       
  33 H33           -0.5013    -0.3764     0.9052 H       
  34 H34           -0.5139    -0.3729    -0.8747 H       
  35 H35           -2.0266     1.6678    -0.0562 H       
  36 H36            1.5841    -0.5393     2.1329 H       
  37 H37            3.9150    -1.3289     2.1205 H       
  38 H38            3.8846    -1.3208    -2.1563 H       
  39 H39            1.5504    -0.5412    -2.1325 H       
  40 H40            5.8378    -1.9803     0.8071 H       
  41 H41            5.5184    -2.8135    -1.8725 H       
  42 H42            6.0889    -1.1274    -1.8736 H       
  43 H43            6.9000    -4.5757    -1.0113 H       
  44 H44            8.2695    -0.5467    -1.0185 H       
  45 H45           10.5588    -1.2610    -0.5912 H       
  46 H46           12.1807    -3.0991    -0.2119 H       
  47 H47           12.6258    -5.4841     0.0013 H       
  48 H48           10.8115    -7.1283    -0.2096 H       
  49 H49            8.5225    -6.4142    -0.6371 H       
  50 H50           -2.9208     3.7903    -1.1443 H       
  51 H51           -2.9577     6.2424    -0.9458 H       
  52 H52            0.4492     6.0833     1.6355 H       
  53 H53            0.4798     3.6306     1.4427 H       
  54 H54            0.2013     9.4893     1.7611 H       
@<TRIPOS>BOND
   1    1    2 1
   2    1    3 2
   3    1    4 am
   4    2    5 1
   5    2   33 1
   6    2   34 1
   7    4   23 1
   8    4   35 1
   9    5    6 ar
  10    5   10 ar
  11    6    7 ar
  12    6   36 1
  13    7    8 ar
  14    7   37 1
  15    8    9 ar
  16    8   11 1
  17    9   10 ar
  18    9   38 1
  19   10   39 1
  20   11   12 1
  21   11   40 1
  22   12   14 1
  23   12   41 1
  24   12   42 1
  25   13   14 ar
  26   13   22 ar
  27   13   43 1
  28   14   15 ar
  29   15   16 ar
  30   15   44 1
  31   16   17 ar
  32   16   45 1
  33   17   18 ar
  34   17   22 ar
  35   18   19 ar
  36   18   46 1
  37   19   20 ar
  38   19   47 1
  39   20   21 ar
  40   20   48 1
  41   21   22 ar
  42   21   49 1
  43   23   24 ar
  44   23   28 ar
  45   24   25 ar
  46   24   50 1
  47   25   26 ar
  48   25   51 1
  49   26   27 ar
  50   26   29 1
  51   27   28 ar
  52   27   52 1
  53   28   53 1
  54   29   30 1
  55   30   31 1
  56   30   32 1
  57   30   54 1

#	End of record

