#	Name: ASD03240433
#	Creating user name:	WinNT
#	Creation time:	15. 06. 2019 20:34

#	Modifying user name:	WinNT
#	Modification time:	15. 06. 2019 20:34

#	Program:	/corina/corina34_cracker 3.40 0067  02.08.2006

@<TRIPOS>MOLECULE
ASD03240433
  38   40    0    0    0
SMALL
NO_CHARGES


@<TRIPOS>ATOM
   1 C1            -0.0651     1.4705    -0.0590 C.ar    
   2 C2            -0.3954     0.5097     0.8802 C.ar    
   3 C3             2.5129     0.3891    -1.2847 C.ar    
   4 C4             2.1173     1.7089    -1.1725 C.ar    
   5 C5             1.2801     2.1471     0.0014 C.3     
   6 C6             3.2808    -0.0134    -2.3611 C.ar    
   7 C7             3.6535     0.9049    -3.3265 C.ar    
   8 C8             3.2576     2.2257    -3.2135 C.ar    
   9 C9             2.4898     2.6270    -2.1366 C.ar    
  10 Cl10           4.6184     0.4002    -4.6785 Cl      
  11 C11           -1.6249    -0.1140     0.8307 C.ar    
  12 C12           -2.5369     0.2265    -0.1703 C.ar    
  13 C13           -2.1970     1.1970    -1.1149 C.ar    
  14 C14           -0.9621     1.8089    -1.0567 C.ar    
  15 C15            1.0914     3.6660    -0.0433 C.3     
  16 C16            0.2924     4.1122     1.1833 C.3     
  17 N17            1.0112     3.7260     2.4042 N.3     
  18 C18            1.1627     2.2680     2.4925 C.3     
  19 C19            1.9869     1.7653     1.3049 C.3     
  20 C20           -3.8148    -0.4172    -0.2282 C.1     
  21 N21           -4.8285    -0.9277    -0.2741 N.1     
  22 H22            0.3111     0.2471     1.6537 H       
  23 H23            2.2257    -0.3267    -0.5287 H       
  24 H24            3.5901    -1.0445    -2.4484 H       
  25 H25            3.5485     2.9431    -3.9666 H       
  26 H26            2.1804     3.6580    -2.0485 H       
  27 H27           -1.8812    -0.8641     1.5642 H       
  28 H28           -2.8976     1.4648    -1.8920 H       
  29 H29           -0.6979     2.5598    -1.7866 H       
  30 H30            2.0660     4.1541    -0.0401 H       
  31 H31            0.5501     3.9390    -0.9492 H       
  32 H32            0.1686     5.1949     1.1619 H       
  33 H33           -0.6873     3.6345     1.1721 H       
  34 H34            1.9074     4.1865     2.4572 H       
  35 H35            1.6710     2.0113     3.4219 H       
  36 H36            0.1790     1.7989     2.4751 H       
  37 H37            2.0854     0.6814     1.3631 H       
  38 H38            2.9759     2.2230     1.3285 H       
@<TRIPOS>BOND
   1    1    2 ar
   2    1    5 1
   3    1   14 ar
   4    2   11 ar
   5    2   22 1
   6    3    4 ar
   7    3    6 ar
   8    3   23 1
   9    4    5 1
  10    4    9 ar
  11    5   15 1
  12    5   19 1
  13    6    7 ar
  14    6   24 1
  15    7    8 ar
  16    7   10 1
  17    8    9 ar
  18    8   25 1
  19    9   26 1
  20   11   12 ar
  21   11   27 1
  22   12   13 ar
  23   12   20 1
  24   13   14 ar
  25   13   28 1
  26   14   29 1
  27   15   16 1
  28   15   30 1
  29   15   31 1
  30   16   17 1
  31   16   32 1
  32   16   33 1
  33   17   18 1
  34   17   34 1
  35   18   19 1
  36   18   35 1
  37   18   36 1
  38   19   37 1
  39   19   38 1
  40   20   21 3

#	End of record

