#	Name: ASD05430203
#	Creating user name:	WinNT
#	Creation time:	15. 06. 2019 21:00

#	Modifying user name:	WinNT
#	Modification time:	15. 06. 2019 21:00

#	Program:	/corina/corina34_cracker 3.40 0067  02.08.2006

@<TRIPOS>MOLECULE
ASD05430203
  74   79    0    0    0
SMALL
NO_CHARGES


@<TRIPOS>ATOM
   1 C1             0.1424     1.2230    -0.9483 C.ar    
   2 C2             0.0192    -0.0131    -0.3147 C.ar    
   3 C3             1.0824    -0.5340     0.4116 C.ar    
   4 C4             2.2641     0.1679     0.5091 C.ar    
   5 C5             2.3951     1.4081    -0.1242 C.ar    
   6 C6             1.3247     1.9327    -0.8548 C.ar    
   7 C7             4.9377    -0.0066    -0.1070 C.3     
   8 C8             4.8270     1.5012     0.0670 C.2     
   9 C9             3.6566     2.1597    -0.0208 C.2     
  10 C10            6.1141    -0.3036    -1.0343 C.3     
  11 C11            7.4571     0.2453    -0.5671 C.3     
  12 N12            7.3172     1.6052    -0.0656 N.pl3   
  13 C13            6.1116     2.1849     0.3416 C.2     
  14 C14           -0.7025     2.9987    -2.2852 C.3     
  15 O15           -0.8985     1.7275    -1.6626 O.3     
  16 N16           -1.1804    -0.7313    -0.4105 N.pl3   
  17 C17           -2.4292    -0.2526    -0.1731 C.2     
  18 C18           -1.3156    -2.0480    -0.7674 C.2     
  19 C19           -2.6322    -2.3286    -0.7313 C.2     
  20 N20           -3.2876    -1.2168    -0.3663 N.2     
  21 C21           -3.2610    -3.6606    -1.0503 C.3     
  22 C22            8.3411     2.6391     0.1113 C.3     
  23 O23            7.7183     3.5667     1.0244 O.3     
  24 N24            6.3236     3.3029     0.9472 N.2     
  25 C25            9.6089     2.0439     0.7272 C.3     
  26 C26           10.6575     3.1447     0.8995 C.3     
  27 C27            8.6507     3.3114    -1.2014 C.ar    
  28 C28            9.1573     4.5976    -1.2161 C.ar    
  29 C29            8.4332     2.6394    -2.3898 C.ar    
  30 C30            8.7175     3.2546    -3.5941 C.ar    
  31 C31            9.2200     4.5447    -3.6103 C.ar    
  32 C32            9.4420     5.2150    -2.4192 C.ar    
  33 F33            9.4983     5.1472    -4.7870 F       
  34 S34           12.1606     2.4391     1.6297 S.o2    
  35 O35           11.8600     1.9975     2.9465 O.2     
  36 O36           12.7270     1.5227     0.7030 O.2     
  37 C37           13.2413     3.8918     1.7399 C.3     
  38 C38            6.1798    -1.7769    -1.4720 C.3     
  39 O39            6.4482    -1.2544    -2.7891 O.3     
  40 C40            5.8119     0.0094    -2.5100 C.3     
  41 C41           14.5854     3.4829     2.3459 C.3     
  42 H42            0.9826    -1.4914     0.9014 H       
  43 H43            3.0890    -0.2394     1.0747 H       
  44 H44            1.4218     2.8898    -1.3456 H       
  45 H45            5.1080    -0.4754     0.8621 H       
  46 H46            4.0182    -0.3927    -0.5470 H       
  47 H47            3.6429     3.2396    -0.0154 H       
  48 H48            7.8474    -0.3910     0.2272 H       
  49 H49            8.1560     0.2421    -1.4035 H       
  50 H50           -0.4806     3.7460    -1.5235 H       
  51 H51            0.1302     2.9356    -2.9858 H       
  52 H52           -1.6076     3.2841    -2.8214 H       
  53 H53           -2.6713     0.7566     0.1258 H       
  54 H54           -0.5192    -2.7294    -1.0275 H       
  55 H55           -3.3265    -4.2584    -0.1412 H       
  56 H56           -4.2609    -3.5029    -1.4543 H       
  57 H57           -2.6502    -4.1838    -1.7859 H       
  58 H58            9.3723     1.6121     1.6997 H       
  59 H59           10.0018     1.2674     0.0708 H       
  60 H60           10.8941     3.5765    -0.0730 H       
  61 H61           10.2647     3.9212     1.5559 H       
  62 H62            9.3303     5.1203    -0.2869 H       
  63 H63            8.0413     1.6331    -2.3769 H       
  64 H64            8.5482     2.7292    -4.5224 H       
  65 H65            9.8336     6.2215    -2.4306 H       
  66 H66           13.4020     4.3016     0.7427 H       
  67 H67           12.7725     4.6463     2.3716 H       
  68 H68            7.0134    -2.3292    -1.0382 H       
  69 H69            5.2290    -2.3039    -1.3917 H       
  70 H70            4.7484     0.0299    -2.7478 H       
  71 H71            6.3542     0.8716    -2.8981 H       
  72 H72           15.0542     2.7284     1.7142 H       
  73 H73           15.2347     4.3558     2.4121 H       
  74 H74           14.4247     3.0731     3.3431 H       
@<TRIPOS>BOND
   1    1    2 ar
   2    1    6 ar
   3    1   15 1
   4    2    3 ar
   5    2   16 1
   6    3    4 ar
   7    3   42 1
   8    4    5 ar
   9    4   43 1
  10    5    6 ar
  11    5    9 1
  12    6   44 1
  13    7    8 1
  14    7   10 1
  15    7   45 1
  16    7   46 1
  17    8    9 2
  18    8   13 1
  19    9   47 1
  20   10   11 1
  21   10   38 1
  22   10   40 1
  23   11   12 1
  24   11   48 1
  25   11   49 1
  26   12   13 1
  27   12   22 1
  28   13   24 2
  29   14   15 1
  30   14   50 1
  31   14   51 1
  32   14   52 1
  33   16   17 1
  34   16   18 1
  35   17   20 2
  36   17   53 1
  37   18   19 2
  38   18   54 1
  39   19   20 1
  40   19   21 1
  41   21   55 1
  42   21   56 1
  43   21   57 1
  44   22   23 1
  45   22   25 1
  46   22   27 1
  47   23   24 1
  48   25   26 1
  49   25   58 1
  50   25   59 1
  51   26   34 1
  52   26   60 1
  53   26   61 1
  54   27   28 ar
  55   27   29 ar
  56   28   32 ar
  57   28   62 1
  58   29   30 ar
  59   29   63 1
  60   30   31 ar
  61   30   64 1
  62   31   32 ar
  63   31   33 1
  64   32   65 1
  65   34   35 2
  66   34   36 2
  67   34   37 1
  68   37   41 1
  69   37   66 1
  70   37   67 1
  71   38   39 1
  72   38   68 1
  73   38   69 1
  74   39   40 1
  75   40   70 1
  76   40   71 1
  77   41   72 1
  78   41   73 1
  79   41   74 1

#	End of record

