#	Name: ASD01028074
#	Creating user name:	WinNT
#	Creation time:	15. 06. 2019 18:56

#	Modifying user name:	WinNT
#	Modification time:	15. 06. 2019 18:56

#	Program:	/corina/corina34_cracker 3.40 0067  02.08.2006

@<TRIPOS>MOLECULE
ASD01028074
  54   58    0    0    0
SMALL
NO_CHARGES


@<TRIPOS>ATOM
   1 C1            -0.0187     1.5281     0.0104 C.3     
   2 C2             0.0021    -0.0041     0.0020 C.3     
   3 C3            -1.3771    -0.5260    -0.4019 C.3     
   4 N4             1.4311     3.4514    -0.4555 N.3     
   5 C5             1.4160     2.0558    -0.0004 C.3     
   6 C6             1.9823     3.5470    -1.8174 C.3     
   7 N7             0.4854     1.2955    -4.5755 N.pl3   
   8 C8             1.1450     2.4041    -5.0861 C.ar    
   9 C9             1.3621     3.4791    -4.2255 C.ar    
  10 C10            0.8385     3.3973    -2.8194 C.3     
  11 C11            1.5855     2.4722    -6.4027 C.ar    
  12 C12            2.2609     3.6009    -6.8438 C.ar    
  13 C13            2.4899     4.6570    -5.9719 C.ar    
  14 C14            2.0361     4.5926    -4.6700 C.ar    
  15 O15           -1.2476    -1.7800    -1.0740 O.3     
  16 C16           -1.3432    -1.7508    -2.4313 C.ar    
  17 C17           -0.7033    -0.7591    -3.1185 C.ar    
  18 C18           -0.7961    -0.7232    -4.5157 C.ar    
  19 C19           -0.1651     0.3115    -5.2644 C.ar    
  20 N20           -0.2677     0.2697    -6.5825 N.ar    
  21 O21            1.4889     1.5752    -7.4202 O.3     
  22 C22            2.0232     2.2026    -8.5960 C.3     
  23 O23            2.5951     3.4435    -8.1542 O.3     
  24 C24           -2.0901    -2.7256    -3.1060 C.ar    
  25 C25           -2.1838    -2.7150    -4.4802 C.ar    
  26 C26           -1.5316    -1.7100    -5.2085 C.ar    
  27 N27           -1.5828    -1.6462    -6.5492 N.ar    
  28 C28           -0.9598    -0.6842    -7.1893 C.ar    
  29 O29           -2.7288    -3.6923    -2.3967 O.3     
  30 C30           -3.4743    -4.6577    -3.1412 C.3     
  31 H31           -0.5456     1.8893    -0.8727 H       
  32 H32           -0.5286     1.8798     0.9073 H       
  33 H33            0.7471    -0.3539    -0.7126 H       
  34 H34            0.2523    -0.3700     0.9978 H       
  35 H35           -1.9904    -0.6552     0.4899 H       
  36 H36           -1.8555     0.1931    -1.0668 H       
  37 H37            0.5081     3.8566    -0.4097 H       
  38 H38            1.8305     1.9985     1.0061 H       
  39 H39            2.0201     1.4485    -0.6746 H       
  40 H40            2.4609     4.5172    -1.9509 H       
  41 H41            2.7117     2.7521    -1.9734 H       
  42 H42            0.4865     1.2081    -3.6094 H       
  43 H43            0.3528     2.4328    -2.6708 H       
  44 H44            0.1113     4.1931    -2.6583 H       
  45 H45            3.0248     5.5310    -6.3132 H       
  46 H46            2.2108     5.4197    -3.9979 H       
  47 H47           -0.1320    -0.0102    -2.5902 H       
  48 H48            2.7925     1.5720    -9.0417 H       
  49 H49            1.2269     2.3911    -9.3160 H       
  50 H50           -2.7549    -3.4751    -4.9927 H       
  51 H51           -1.0140    -0.6691    -8.2679 H       
  52 H52           -3.9329    -5.3702    -2.4556 H       
  53 H53           -4.2519    -4.1530    -3.7145 H       
  54 H54           -2.8066    -5.1864    -3.8216 H       
@<TRIPOS>BOND
   1    1    2 1
   2    1    5 1
   3    1   31 1
   4    1   32 1
   5    2    3 1
   6    2   33 1
   7    2   34 1
   8    3   15 1
   9    3   35 1
  10    3   36 1
  11    4    5 1
  12    4    6 1
  13    4   37 1
  14    5   38 1
  15    5   39 1
  16    6   10 1
  17    6   40 1
  18    6   41 1
  19    7    8 1
  20    7   19 1
  21    7   42 1
  22    8    9 ar
  23    8   11 ar
  24    9   10 1
  25    9   14 ar
  26   10   43 1
  27   10   44 1
  28   11   12 ar
  29   11   21 1
  30   12   13 ar
  31   12   23 1
  32   13   14 ar
  33   13   45 1
  34   14   46 1
  35   15   16 1
  36   16   17 ar
  37   16   24 ar
  38   17   18 ar
  39   17   47 1
  40   18   19 ar
  41   18   26 ar
  42   19   20 ar
  43   20   28 ar
  44   21   22 1
  45   22   23 1
  46   22   48 1
  47   22   49 1
  48   24   25 ar
  49   24   29 1
  50   25   26 ar
  51   25   50 1
  52   26   27 ar
  53   27   28 ar
  54   28   51 1
  55   29   30 1
  56   30   52 1
  57   30   53 1
  58   30   54 1

#	End of record

