#	Name: ASD01811548
#	Creating user name:	WinNT
#	Creation time:	15. 06. 2019 19:26

#	Modifying user name:	WinNT
#	Modification time:	15. 06. 2019 19:26

#	Program:	/corina/corina34_cracker 3.40 0067  02.08.2006

@<TRIPOS>MOLECULE
ASD01811548
  33   34    0    0    0
SMALL
NO_CHARGES


@<TRIPOS>ATOM
   1 C1            -0.0569     1.6828    -0.2284 C.3     
   2 C2            -0.2479     0.2154     0.0651 C.2     
   3 C3             0.7659    -0.6371    -0.1199 C.2     
   4 C4             2.0648    -0.1407    -0.6019 C.2     
   5 C5             2.3284     1.1737    -0.5464 C.2     
   6 N6             1.3573     2.0277    -0.0362 N.am    
   7 C7             1.7072     3.1508     0.6217 C.2     
   8 O8             0.8487     3.8891     1.0625 O.2     
   9 O9             3.0084     3.4546     0.7906 O.3     
  10 C10           -0.4628     1.9729    -1.6747 C.3     
  11 O11            0.5968    -1.9606     0.1374 O.3     
  12 C12           -0.6901    -2.3717     0.6030 C.3     
  13 C13            3.2941     4.5416     1.5553 C.ar    
  14 C14            3.1986     4.4635     2.9370 C.ar    
  15 C15            3.4895     5.5695     3.7119 C.ar    
  16 C16            3.8755     6.7537     3.1114 C.ar    
  17 C17            3.9710     6.8341     1.7344 C.ar    
  18 C18            3.6872     5.7291     0.9554 C.ar    
  19 H19           -0.6721     2.2737     0.4503 H       
  20 H20           -1.2005    -0.1456     0.4238 H       
  21 H21            2.7989    -0.8279    -0.9961 H       
  22 H22            3.2761     1.5605    -0.8908 H       
  23 H23           -1.5103     1.7078    -1.8183 H       
  24 H24           -0.3243     3.0334    -1.8852 H       
  25 H25            0.1569     1.3842    -2.3511 H       
  26 H26           -0.9188    -1.8600     1.5379 H       
  27 H27           -1.4439    -2.1198    -0.1429 H       
  28 H28           -0.6892    -3.4490     0.7692 H       
  29 H29            2.8968     3.5389     3.4065 H       
  30 H30            3.4149     5.5094     4.7877 H       
  31 H31            4.1024     7.6173     3.7190 H       
  32 H32            4.2724     7.7603     1.2677 H       
  33 H33            3.7669     5.7910    -0.1198 H       
@<TRIPOS>BOND
   1    1    2 1
   2    1    6 1
   3    1   10 1
   4    1   19 1
   5    2    3 2
   6    2   20 1
   7    3    4 1
   8    3   11 1
   9    4    5 2
  10    4   21 1
  11    5    6 1
  12    5   22 1
  13    6    7 am
  14    7    8 2
  15    7    9 1
  16    9   13 1
  17   10   23 1
  18   10   24 1
  19   10   25 1
  20   11   12 1
  21   12   26 1
  22   12   27 1
  23   12   28 1
  24   13   14 ar
  25   13   18 ar
  26   14   15 ar
  27   14   29 1
  28   15   16 ar
  29   15   30 1
  30   16   17 ar
  31   16   31 1
  32   17   18 ar
  33   17   32 1
  34   18   33 1

#	End of record

