#	Name: ASD05723009
#	Creating user name:	WinNT
#	Creation time:	15. 06. 2019 21:02

#	Modifying user name:	WinNT
#	Modification time:	15. 06. 2019 21:02

#	Program:	/corina/corina34_cracker 3.40 0067  02.08.2006

@<TRIPOS>MOLECULE
ASD05723009
  65   69    0    0    0
SMALL
NO_CHARGES


@<TRIPOS>ATOM
   1 C1            -0.6006     1.4874     0.3824 C.3     
   2 C2            -0.6018    -0.0424     0.4077 C.3     
   3 C3             0.3672    -0.5366     1.4850 C.3     
   4 N4             0.4200    -2.0055     1.4528 N.3     
   5 C5             0.8505    -2.4824     0.1305 C.3     
   6 C6            -0.1234    -1.9687    -0.9333 C.3     
   7 O7            -0.1853    -0.5414    -0.8662 O.3     
   8 C8             0.3635    -2.3944    -2.3199 C.3     
   9 C9             1.2452    -2.4933     2.4480 C.ar    
  10 N10            1.8436    -1.6329     3.2504 N.ar    
  11 C11            2.6528    -2.0635     4.2294 C.ar    
  12 C12            2.8485    -3.4589     4.3802 C.ar    
  13 C13            3.6899    -3.9316     5.3972 C.ar    
  14 C14            4.2948    -3.0161     6.2122 C.ar    
  15 C15            4.0631    -1.6484     6.0148 C.ar    
  16 N16            3.2669    -1.2140     5.0516 N.ar    
  17 C17            4.7248    -0.6662     6.9050 C.ar    
  18 C18            4.5063     0.6993     6.7239 C.ar    
  19 C19            5.1235     1.6106     7.5539 C.ar    
  20 C20            5.9625     1.1703     8.5693 C.ar    
  21 C21            6.1821    -0.1891     8.7523 C.ar    
  22 C22            5.5632    -1.1056     7.9299 C.ar    
  23 O23            6.5698     2.0706     9.3847 O.3     
  24 C24            7.4196     1.5489    10.4083 C.3     
  25 C25            4.8881     3.0863     7.3590 C.3     
  26 O26            3.9960     3.2853     6.2605 O.3     
  27 C27            2.1813    -4.3355     3.4910 C.ar    
  28 N28            1.3982    -3.8095     2.5594 N.ar    
  29 N29            2.3375    -5.7007     3.5945 N.3     
  30 C30            2.3591    -6.3308     2.2664 C.3     
  31 C31            2.5936    -7.8353     2.4250 C.3     
  32 O32            1.5777    -8.3848     3.2685 O.3     
  33 C33            1.5288    -7.7945     4.5702 C.3     
  34 C34            1.2835    -6.2895     4.4333 C.3     
  35 H35            0.4042     1.8463     0.1592 H       
  36 H36           -1.2906     1.8386    -0.3848 H       
  37 H37           -0.9144     1.8671     1.3547 H       
  38 H38           -1.6066    -0.4019     0.6293 H       
  39 H39            1.3613    -0.1324     1.2936 H       
  40 H40            0.0217    -0.2062     2.4646 H       
  41 H41            1.8522    -2.1093    -0.0826 H       
  42 H42            0.8577    -3.5723     0.1213 H       
  43 H43           -1.1142    -2.3849    -0.7510 H       
  44 H44            0.4141    -3.4821    -2.3691 H       
  45 H45           -0.3303    -2.0283    -3.0767 H       
  46 H46            1.3534    -1.9760    -2.5016 H       
  47 H47            3.8552    -4.9902     5.5332 H       
  48 H48            4.9488    -3.3458     7.0059 H       
  49 H49            3.8546     1.0424     5.9340 H       
  50 H50            6.8351    -0.5284     9.5428 H       
  51 H51            5.7306    -2.1625     8.0757 H       
  52 H52            6.8402     0.9016    11.0667 H       
  53 H53            8.2268     0.9752     9.9529 H       
  54 H54            7.8400     2.3721    10.9860 H       
  55 H55            4.4496     3.5069     8.2639 H       
  56 H56            5.8367     3.5812     7.1509 H       
  57 H57            3.7990     4.2140     6.0771 H       
  58 H58            1.4047    -6.1618     1.7678 H       
  59 H59            3.1631    -5.8978     1.6712 H       
  60 H60            2.5535    -8.3151     1.4471 H       
  61 H61            3.5717    -8.0058     2.8749 H       
  62 H62            0.7185    -8.2446     5.1437 H       
  63 H63            2.4759    -7.9638     5.0825 H       
  64 H64            1.3023    -5.8264     5.4199 H       
  65 H65            0.3118    -6.1198     3.9694 H       
@<TRIPOS>BOND
   1    1    2 1
   2    1   35 1
   3    1   36 1
   4    1   37 1
   5    2    3 1
   6    2    7 1
   7    2   38 1
   8    3    4 1
   9    3   39 1
  10    3   40 1
  11    4    5 1
  12    4    9 1
  13    5    6 1
  14    5   41 1
  15    5   42 1
  16    6    7 1
  17    6    8 1
  18    6   43 1
  19    8   44 1
  20    8   45 1
  21    8   46 1
  22    9   10 ar
  23    9   28 ar
  24   10   11 ar
  25   11   12 ar
  26   11   16 ar
  27   12   13 ar
  28   12   27 ar
  29   13   14 ar
  30   13   47 1
  31   14   15 ar
  32   14   48 1
  33   15   16 ar
  34   15   17 1
  35   17   18 ar
  36   17   22 ar
  37   18   19 ar
  38   18   49 1
  39   19   20 ar
  40   19   25 1
  41   20   21 ar
  42   20   23 1
  43   21   22 ar
  44   21   50 1
  45   22   51 1
  46   23   24 1
  47   24   52 1
  48   24   53 1
  49   24   54 1
  50   25   26 1
  51   25   55 1
  52   25   56 1
  53   26   57 1
  54   27   28 ar
  55   27   29 1
  56   29   30 1
  57   29   34 1
  58   30   31 1
  59   30   58 1
  60   30   59 1
  61   31   32 1
  62   31   60 1
  63   31   61 1
  64   32   33 1
  65   33   34 1
  66   33   62 1
  67   33   63 1
  68   34   64 1
  69   34   65 1

#	End of record

