#	Name: ASD01001177
#	Creating user name:	WinNT
#	Creation time:	15. 06. 2019 18:55

#	Modifying user name:	WinNT
#	Modification time:	15. 06. 2019 18:55

#	Program:	/corina/corina34_cracker 3.40 0067  02.08.2006

@<TRIPOS>MOLECULE
ASD01001177
  52   55    0    0    0
SMALL
NO_CHARGES


@<TRIPOS>ATOM
   1 C1            -0.0167     1.3780     0.0096 C.ar    
   2 C2             1.2789     2.1477     0.0014 C.3     
   3 C3             1.5840     2.6356    -1.4177 C.3     
   4 N4             1.1606     3.3320     0.8643 N.pl3   
   5 C5             1.5951     1.4586    -2.3893 C.3     
   6 C6             2.9338     3.3489    -1.4238 C.3     
   7 C7             2.0958     4.3644     0.7308 C.ar    
   8 C8             2.7665     0.5297    -2.0566 C.3     
   9 C9             2.9598     4.4105    -0.3522 C.ar    
  10 O10            3.9821     2.4120    -1.1642 O.3     
  11 C11            2.1510     5.3556     1.7048 C.ar    
  12 C12            4.0661     1.3394    -2.1029 C.3     
  13 C13            3.8699     5.4475    -0.4598 C.ar    
  14 C14            3.0627     6.3861     1.5913 C.ar    
  15 C15            3.9213     6.4320     0.5085 C.ar    
  16 C16            4.9152     7.5580     0.3841 C.3     
  17 C17            4.6550     8.3270    -0.9127 C.3     
  18 C18            4.7657     8.5043     1.5770 C.3     
  19 C19            6.3340     6.9857     0.3618 C.3     
  20 C20            0.0021    -0.0041     0.0020 C.ar    
  21 C21           -1.1843    -0.7134     0.0100 C.ar    
  22 C22           -2.3947    -0.0381     0.0256 C.ar    
  23 C23           -2.4121     1.3513     0.0333 C.ar    
  24 C24           -1.2220     2.0557     0.0305 C.ar    
  25 O25           -3.5627    -0.7338     0.0331 O.3     
  26 F26           -3.5898     2.0130     0.0481 F       
  27 H27            2.0894     1.5107     0.3555 H       
  28 H28            0.8173     3.3469    -1.7249 H       
  29 H29            0.4451     3.3970     1.5161 H       
  30 H30            0.6588     0.9073    -2.3024 H       
  31 H31            1.7043     1.8299    -3.4082 H       
  32 H32            3.0953     3.8119    -2.3973 H       
  33 H33            2.6308     0.1134    -1.0584 H       
  34 H34            2.8124    -0.2770    -2.7882 H       
  35 H35            1.4800     5.3194     2.5503 H       
  36 H36            4.9065     0.6948    -1.8455 H       
  37 H37            4.2086     1.7429    -3.1054 H       
  38 H38            4.5427     5.4873    -1.3036 H       
  39 H39            3.1050     7.1560     2.3476 H       
  40 H40            3.6442     8.7347    -0.8968 H       
  41 H41            5.3738     9.1414    -1.0027 H       
  42 H42            4.7615     7.6528    -1.7626 H       
  43 H43            4.9511     7.9565     2.5009 H       
  44 H44            5.4846     9.3187     1.4870 H       
  45 H45            3.7550     8.9120     1.5929 H       
  46 H46            6.4405     6.3115    -0.4881 H       
  47 H47            7.0529     7.8001     0.2718 H       
  48 H48            6.5194     6.4379     1.2857 H       
  49 H49            0.9450    -0.5305    -0.0105 H       
  50 H50           -1.1681    -1.7932     0.0037 H       
  51 H51           -1.2340     3.1356     0.0368 H       
  52 H52           -3.8920    -0.9402     0.9185 H       
@<TRIPOS>BOND
   1    1   20 ar
   2    1    2 1
   3    1   24 ar
   4    2    3 1
   5    2    4 1
   6    2   27 1
   7    3    5 1
   8    3    6 1
   9    3   28 1
  10    4    7 1
  11    4   29 1
  12    5    8 1
  13    5   30 1
  14    5   31 1
  15    6    9 1
  16    6   10 1
  17    6   32 1
  18    7    9 ar
  19    7   11 ar
  20    8   12 1
  21    8   33 1
  22    8   34 1
  23    9   13 ar
  24   10   12 1
  25   11   14 ar
  26   11   35 1
  27   12   36 1
  28   12   37 1
  29   13   15 ar
  30   13   38 1
  31   14   15 ar
  32   14   39 1
  33   15   16 1
  34   16   17 1
  35   16   18 1
  36   16   19 1
  37   17   40 1
  38   17   41 1
  39   17   42 1
  40   18   43 1
  41   18   44 1
  42   18   45 1
  43   19   46 1
  44   19   47 1
  45   19   48 1
  46   20   21 ar
  47   20   49 1
  48   21   22 ar
  49   21   50 1
  50   22   23 ar
  51   22   25 1
  52   23   24 ar
  53   23   26 1
  54   24   51 1
  55   25   52 1

#	End of record

