#	Name: ASD01811232
#	Creating user name:	WinNT
#	Creation time:	15. 06. 2019 19:26

#	Modifying user name:	WinNT
#	Modification time:	15. 06. 2019 19:26

#	Program:	/corina/corina34_cracker 3.40 0067  02.08.2006

@<TRIPOS>MOLECULE
ASD01811232
  36   37    0    0    0
SMALL
NO_CHARGES


@<TRIPOS>ATOM
   1 C1            -0.0708     1.3189    -0.6024 C.2     
   2 C2             0.0702    -0.1247    -0.3213 C.ar    
   3 C3             1.3411    -0.6994    -0.2293 C.ar    
   4 C4             1.4760    -2.0484     0.0332 C.ar    
   5 C5             0.3585    -2.8400     0.2064 C.ar    
   6 C6            -0.9204    -2.2789     0.1172 C.ar    
   7 C7            -1.0630    -0.9145    -0.1419 C.ar    
   8 O8             0.9143     2.0284    -0.6449 O.2     
   9 O9            -1.2911     1.8473    -0.8172 O.3     
  10 C10            2.5677     0.1555    -0.4177 C.3     
  11 C11           -2.1116    -3.1235     0.3021 C.2     
  12 O12           -2.7319    -3.0774     1.3428 O.2     
  13 C13           -2.5601    -4.0457    -0.8023 C.3     
  14 Br14          -4.5172    -4.2254    -0.7515 Br      
  15 Br15          -2.0151    -3.3022    -2.5387 Br      
  16 C16            0.5160    -4.3113     0.4916 C.3     
  17 C17            1.1994    -5.0895    -0.6452 C.3     
  18 C18            1.9514    -5.8691     0.4464 C.3     
  19 C19            1.7461    -4.6437     1.3526 C.3     
  20 C20           -1.3542     3.2725    -1.0874 C.3     
  21 H21            2.4607    -2.4864     0.1031 H       
  22 H22           -2.0471    -0.4745    -0.2071 H       
  23 H23            2.8123     0.6520     0.5213 H       
  24 H24            3.4042    -0.4719    -0.7256 H       
  25 H25            2.3739     0.9049    -1.1852 H       
  26 H26           -2.1016    -5.0252    -0.6664 H       
  27 H27           -0.4047    -4.7747     0.8460 H       
  28 H28            0.5132    -5.7049    -1.2271 H       
  29 H29            1.8484    -4.4733    -1.2675 H       
  30 H30            1.4238    -6.7591     0.7893 H       
  31 H31            2.9963    -6.0624     0.2035 H       
  32 H32            2.5446    -3.9057     1.2765 H       
  33 H33            1.5013    -4.8992     2.3836 H       
  34 H34           -0.7755     3.4985    -1.9830 H       
  35 H35           -2.3921     3.5676    -1.2414 H       
  36 H36           -0.9422     3.8215    -0.2406 H       
@<TRIPOS>BOND
   1    1    2 1
   2    1    8 2
   3    1    9 1
   4    2    3 ar
   5    2    7 ar
   6    3    4 ar
   7    3   10 1
   8    4    5 ar
   9    4   21 1
  10    5    6 ar
  11    5   16 1
  12    6    7 ar
  13    6   11 1
  14    7   22 1
  15    9   20 1
  16   10   23 1
  17   10   24 1
  18   10   25 1
  19   11   12 2
  20   11   13 1
  21   13   14 1
  22   13   15 1
  23   13   26 1
  24   16   17 1
  25   16   19 1
  26   16   27 1
  27   17   18 1
  28   17   28 1
  29   17   29 1
  30   18   19 1
  31   18   30 1
  32   18   31 1
  33   19   32 1
  34   19   33 1
  35   20   34 1
  36   20   35 1
  37   20   36 1

#	End of record

