#	Name: ASD03930160
#	Creating user name:	WinNT
#	Creation time:	15. 06. 2019 20:47

#	Modifying user name:	WinNT
#	Modification time:	15. 06. 2019 20:47

#	Program:	/corina/corina34_cracker 3.40 0067  02.08.2006

@<TRIPOS>MOLECULE
ASD03930160
  55   58    0    0    0
SMALL
NO_CHARGES


@<TRIPOS>ATOM
   1 C1            -0.3420     1.6413     0.5279 C.ar    
   2 C2            -0.2205     0.2637     0.6414 C.ar    
   3 C3             1.0114    -0.2992     0.9408 C.ar    
   4 C4             2.1141     0.5126     1.1252 C.ar    
   5 C5             1.9903     1.8848     1.0121 C.ar    
   6 C6             0.7634     2.4485     0.7132 C.ar    
   7 S7            -1.9035     2.3598     0.1407 S.o2    
   8 O8            -2.8699     1.6593     0.9117 O.2     
   9 O9            -1.7257     3.7679     0.2105 O.2     
  10 N10           -2.2256     2.0073    -1.4450 N.am    
  11 O11           -1.3067    -0.5326     0.4600 O.3     
  12 C12           -1.1076    -1.9414     0.5920 C.3     
  13 C13           -2.4844     0.6233    -1.8498 C.3     
  14 C14           -3.8437     0.5223    -2.5739 C.3     
  15 C15           -3.4433     0.6917    -4.0549 C.3     
  16 C16           -2.0097     0.2126    -4.1350 C.ar    
  17 C17           -1.2476    -0.1595    -5.2299 C.ar    
  18 C18            0.0602    -0.5693    -5.0595 C.ar    
  19 C19            0.6113    -0.6086    -3.7922 C.ar    
  20 C20           -0.1470    -0.2380    -2.6991 C.ar    
  21 C21           -1.4587     0.1733    -2.8680 C.ar    
  22 C22            0.8855    -0.9738    -6.2538 C.3     
  23 N23            1.5810     0.2002    -6.7869 N.pl3   
  24 N24            0.9827     1.4039    -7.1813 N.2     
  25 C25            1.9240     2.2098    -7.6012 C.2     
  26 C26            3.1500     1.5462    -7.4880 C.2     
  27 C27            2.9117     0.3151    -6.9795 C.2     
  28 C28            1.7220     3.6109    -8.1181 C.3     
  29 F29            0.3776     3.9709    -7.9765 F       
  30 F30            2.5214     4.4971    -7.3881 F       
  31 F31            2.0795     3.6655    -9.4695 F       
  32 C32            4.4988     2.1059    -7.8603 C.3     
  33 O33            5.5083     1.1282    -7.6009 O.3     
  34 H34            1.1084    -1.3711     1.0300 H       
  35 H35            3.0734     0.0747     1.3583 H       
  36 H36            2.8533     2.5177     1.1573 H       
  37 H37            0.6694     3.5207     0.6250 H       
  38 H38           -2.2429     2.7172    -2.1058 H       
  39 H39           -0.3740    -2.2751    -0.1419 H       
  40 H40           -0.7451    -2.1647     1.5955 H       
  41 H41           -2.0518    -2.4592     0.4233 H       
  42 H42           -2.4695    -0.0335    -0.9800 H       
  43 H43           -4.3011    -0.4525    -2.4052 H       
  44 H44           -4.5111     1.3245    -2.2588 H       
  45 H45           -4.0826     0.0802    -4.6918 H       
  46 H46           -3.5087     1.7398    -4.3469 H       
  47 H47           -1.6775    -0.1294    -6.2202 H       
  48 H48            1.6337    -0.9292    -3.6571 H       
  49 H49            0.2842    -0.2689    -1.7094 H       
  50 H50            1.6169    -1.7238    -5.9527 H       
  51 H51            0.2336    -1.3899    -7.0219 H       
  52 H52            3.6533    -0.4411    -6.7683 H       
  53 H53            4.5057     2.3630    -8.9196 H       
  54 H54            4.6976     2.9992    -7.2683 H       
  55 H55            6.4041     1.4208    -7.8178 H       
@<TRIPOS>BOND
   1    1    2 ar
   2    1    6 ar
   3    1    7 1
   4    2    3 ar
   5    2   11 1
   6    3    4 ar
   7    3   34 1
   8    4    5 ar
   9    4   35 1
  10    5    6 ar
  11    5   36 1
  12    6   37 1
  13    7    8 2
  14    7    9 2
  15    7   10 am
  16   10   13 1
  17   10   38 1
  18   11   12 1
  19   12   39 1
  20   12   40 1
  21   12   41 1
  22   13   14 1
  23   13   21 1
  24   13   42 1
  25   14   15 1
  26   14   43 1
  27   14   44 1
  28   15   16 1
  29   15   45 1
  30   15   46 1
  31   16   17 ar
  32   16   21 ar
  33   17   18 ar
  34   17   47 1
  35   18   19 ar
  36   18   22 1
  37   19   20 ar
  38   19   48 1
  39   20   21 ar
  40   20   49 1
  41   22   23 1
  42   22   50 1
  43   22   51 1
  44   23   24 1
  45   23   27 1
  46   24   25 2
  47   25   26 1
  48   25   28 1
  49   26   27 2
  50   26   32 1
  51   27   52 1
  52   28   29 1
  53   28   30 1
  54   28   31 1
  55   32   33 1
  56   32   53 1
  57   32   54 1
  58   33   55 1

#	End of record

