#	Name: ASD01920072
#	Creating user name:	WinNT
#	Creation time:	15. 06. 2019 20:11

#	Modifying user name:	WinNT
#	Modification time:	15. 06. 2019 20:11

#	Program:	/corina/corina34_cracker 3.40 0067  02.08.2006

@<TRIPOS>MOLECULE
ASD01920072
  37   39    0    0    0
SMALL
NO_CHARGES


@<TRIPOS>ATOM
   1 C1            -0.0169     1.3979     0.0097 C.2     
   2 C2             0.0021    -0.0041     0.0020 C.2     
   3 N3             1.1453    -0.6499    -0.0124 N.2     
   4 C4             2.3064     0.0123    -0.0199 C.2     
   5 N5             2.3292     1.3835    -0.0128 N.pl3   
   6 C6             1.1544     2.0801     0.0022 C.2     
   7 C7            -1.2942    -0.7725     0.0108 C.3     
   8 C8             3.6399    -0.4139    -0.0357 C.2     
   9 C9             4.4413     0.7318    -0.0376 C.2     
  10 N10            3.6675     1.7910    -0.0241 N.2     
  11 C11            5.9482     0.7473    -0.0528 C.3     
  12 C12            4.1138    -1.8182    -0.0475 C.ar    
  13 C13            4.3249    -2.4742    -1.2592 C.ar    
  14 C14            4.7664    -3.7824    -1.2666 C.ar    
  15 C15            4.9999    -4.4455    -0.0689 C.ar    
  16 C16            4.7911    -3.7964     1.1397 C.ar    
  17 C17            4.3555    -2.4857     1.1552 C.ar    
  18 O18            5.4337    -5.7339    -0.0806 O.3     
  19 C19            5.6539    -6.3558     1.1870 C.3     
  20 F20            4.1524    -1.8541     2.3321 F       
  21 Cl21           5.0294    -4.5999    -2.7753 Cl      
  22 C22            1.1603     3.5871     0.0097 C.3     
  23 F23           -0.1567     4.0586     0.0244 F       
  24 F24            1.8323     4.0451     1.1481 F       
  25 F25            1.8110     4.0566    -1.1363 F       
  26 H26           -0.9569     1.9298     0.0171 H       
  27 H27           -1.6170    -0.9523    -1.0147 H       
  28 H28           -1.1479    -1.7261     0.5181 H       
  29 H29           -2.0555    -0.1950     0.5353 H       
  30 H30            6.3011     0.7565    -1.0840 H       
  31 H31            6.3076     1.6382     0.4622 H       
  32 H32            6.3258    -0.1417     0.4525 H       
  33 H33            4.1430    -1.9598    -2.1913 H       
  34 H34            4.9737    -4.3151     2.0692 H       
  35 H35            6.4097    -5.7973     1.7393 H       
  36 H36            4.7229    -6.3654     1.7537 H       
  37 H37            5.9972    -7.3791     1.0350 H       
@<TRIPOS>BOND
   1    1    2 1
   2    1    6 2
   3    1   26 1
   4    2    3 2
   5    2    7 1
   6    3    4 1
   7    4    5 1
   8    4    8 2
   9    5    6 1
  10    5   10 1
  11    6   22 1
  12    7   27 1
  13    7   28 1
  14    7   29 1
  15    8    9 1
  16    8   12 1
  17    9   10 2
  18    9   11 1
  19   11   30 1
  20   11   31 1
  21   11   32 1
  22   12   13 ar
  23   12   17 ar
  24   13   14 ar
  25   13   33 1
  26   14   15 ar
  27   14   21 1
  28   15   16 ar
  29   15   18 1
  30   16   17 ar
  31   16   34 1
  32   17   20 1
  33   18   19 1
  34   19   35 1
  35   19   36 1
  36   19   37 1
  37   22   23 1
  38   22   24 1
  39   22   25 1

#	End of record

