#	Name: ASD01814474
#	Creating user name:	WinNT
#	Creation time:	15. 06. 2019 19:32

#	Modifying user name:	WinNT
#	Modification time:	15. 06. 2019 19:32

#	Program:	/corina/corina34_cracker 3.40 0067  02.08.2006

@<TRIPOS>MOLECULE
ASD01814474
  51   55    0    0    0
SMALL
NO_CHARGES


@<TRIPOS>ATOM
   1 C1            -0.0167     1.3819     0.0096 C.ar    
   2 C2             0.0021    -0.0041     0.0020 C.ar    
   3 C3             1.1970    -0.6936    -0.0126 C.ar    
   4 C4             2.3990     0.0034    -0.0203 C.ar    
   5 C5             2.3751     1.4118    -0.0130 C.ar    
   6 C6             1.1661     2.0940     0.0022 C.ar    
   7 N7             3.6102    -0.6577    -0.0345 N.pl3   
   8 N8             4.7455    -0.0610    -0.0416 N.2     
   9 C9             4.8827     1.2395    -0.0363 C.2     
  10 C10            3.6768     2.1037    -0.0217 C.2     
  11 C11            6.0122     2.1720    -0.0422 C.2     
  12 N12            5.4770     3.4118    -0.0314 N.am    
  13 N13            4.0818     3.3389    -0.0194 N.2     
  14 C14            3.5986    -2.1226    -0.0412 C.3     
  15 C15            3.5816    -2.6183    -1.4643 C.ar    
  16 C16            4.7690    -2.8586    -2.1381 C.ar    
  17 C17            4.7051    -3.3145    -3.4461 C.ar    
  18 C18            3.4686    -3.5127    -4.0304 C.ar    
  19 N19            2.3590    -3.2732    -3.3591 N.ar    
  20 C20            2.3818    -2.8446    -2.1123 C.ar    
  21 O21            7.1978     1.8862    -0.0541 O.2     
  22 C22            6.2152     4.6009    -0.0321 C.ar    
  23 C23            3.3872    -4.0079    -5.4514 C.3     
  24 C24            7.1592     4.8334    -1.0238 C.ar    
  25 C25            7.8860     6.0080    -1.0216 C.ar    
  26 C26            7.6749     6.9515    -0.0332 C.ar    
  27 C27            6.7355     6.7230     0.9560 C.ar    
  28 C28            6.0012     5.5537     0.9560 C.ar    
  29 C29            4.9778     5.3056     2.0341 C.3     
  30 C30            6.5088     7.7542     2.0313 C.3     
  31 H31           -0.9605     1.9069     0.0169 H       
  32 H32           -0.9294    -0.5505     0.0080 H       
  33 H33            1.1981    -1.7735    -0.0177 H       
  34 H34            1.1510     3.1739     0.0077 H       
  35 H35            4.4903    -2.4954     0.4627 H       
  36 H36            2.7105    -2.4813     0.4791 H       
  37 H37            5.7213    -2.6943    -1.6558 H       
  38 H38            5.6102    -3.5118    -4.0013 H       
  39 H39            1.4523    -2.6592    -1.5946 H       
  40 H40            3.3632    -5.0977    -5.4556 H       
  41 H41            2.4810    -3.6228    -5.9190 H       
  42 H42            4.2584    -3.6615    -6.0074 H       
  43 H43            7.3250     4.0965    -1.7958 H       
  44 H44            8.6203     6.1894    -1.7925 H       
  45 H45            8.2451     7.8688    -0.0332 H       
  46 H46            4.0119     5.6974     1.7153 H       
  47 H47            4.8934     4.2341     2.2152 H       
  48 H48            5.2880     5.8058     2.9515 H       
  49 H49            5.7339     8.4501     1.7098 H       
  50 H50            6.1938     7.2584     2.9495 H       
  51 H51            7.4348     8.3000     2.2124 H       
@<TRIPOS>BOND
   1    1    2 ar
   2    1    6 ar
   3    1   31 1
   4    2    3 ar
   5    2   32 1
   6    3    4 ar
   7    3   33 1
   8    4    5 ar
   9    4    7 1
  10    5    6 ar
  11    5   10 1
  12    6   34 1
  13    7    8 1
  14    7   14 1
  15    8    9 2
  16    9   10 1
  17    9   11 1
  18   10   13 2
  19   11   12 am
  20   11   21 2
  21   12   13 1
  22   12   22 1
  23   14   15 1
  24   14   35 1
  25   14   36 1
  26   15   16 ar
  27   15   20 ar
  28   16   17 ar
  29   16   37 1
  30   17   18 ar
  31   17   38 1
  32   18   19 ar
  33   18   23 1
  34   19   20 ar
  35   20   39 1
  36   22   24 ar
  37   22   28 ar
  38   23   40 1
  39   23   41 1
  40   23   42 1
  41   24   25 ar
  42   24   43 1
  43   25   26 ar
  44   25   44 1
  45   26   27 ar
  46   26   45 1
  47   27   28 ar
  48   27   30 1
  49   28   29 1
  50   29   46 1
  51   29   47 1
  52   29   48 1
  53   30   49 1
  54   30   50 1
  55   30   51 1

#	End of record

