#	Name: ASD01914412
#	Creating user name:	WinNT
#	Creation time:	15. 06. 2019 20:03

#	Modifying user name:	WinNT
#	Modification time:	15. 06. 2019 20:03

#	Program:	/corina/corina34_cracker 3.40 0067  02.08.2006

@<TRIPOS>MOLECULE
ASD01914412
  36   37    0    0    0
SMALL
NO_CHARGES


@<TRIPOS>ATOM
   1 C1             0.0991     1.6238     0.0151 C.ar    
   2 C2             0.0358     0.2514     0.1754 C.ar    
   3 C3             1.3209     2.2474    -0.1567 C.ar    
   4 C4             2.4837     1.5014    -0.1692 C.ar    
   5 C5             2.4248     0.1236    -0.0086 C.ar    
   6 C6             1.1947    -0.5008     0.1644 C.ar    
   7 N7             3.5992    -0.6339    -0.0212 N.am    
   8 C8             4.3700    -0.8109     1.2120 C.3     
   9 S9             4.1194    -1.3314    -1.4301 S.o2    
  10 C10            5.3110     0.3530     1.3876 C.2     
  11 N11            6.0521     0.4573     2.5085 N.am    
  12 O12            5.4014     1.1960     0.5202 O.2     
  13 C13            6.8450     1.5922     2.7208 C.ar    
  14 C14            5.1893    -0.0776    -2.1878 C.3     
  15 O15            4.8858    -2.4500    -1.0052 O.2     
  16 O16            2.9340    -1.5033    -2.1946 O.2     
  17 Cl17           1.1150    -2.2232     0.3663 Cl      
  18 C18            6.4211     2.8426     2.2774 C.ar    
  19 C19            7.2384     3.9357     2.5104 C.ar    
  20 C20            8.4416     3.7514     3.1718 C.ar    
  21 N21            8.8139     2.5517     3.5787 N.ar    
  22 C22            8.0612     1.4872     3.3809 C.ar    
  23 F23            9.2447     4.8129     3.4030 F       
  24 H24           -0.8086     2.2091     0.0196 H       
  25 H25           -0.9203    -0.2326     0.3097 H       
  26 H26            1.3665     3.3192    -0.2816 H       
  27 H27            3.4376     1.9895    -0.3041 H       
  28 H28            3.6894    -0.8593     2.0621 H       
  29 H29            4.9434    -1.7359     1.1525 H       
  30 H30            6.0364    -0.2537     3.1682 H       
  31 H31            6.0920     0.0401    -1.5882 H       
  32 H32            5.4608    -0.3925    -3.1954 H       
  33 H33            4.6580     0.8729    -2.2350 H       
  34 H34            5.4778     2.9568     1.7639 H       
  35 H35            6.9416     4.9202     2.1802 H       
  36 H36            8.3991     0.5219     3.7281 H       
@<TRIPOS>BOND
   1    1    2 ar
   2    1    3 ar
   3    1   24 1
   4    2    6 ar
   5    2   25 1
   6    3    4 ar
   7    3   26 1
   8    4    5 ar
   9    4   27 1
  10    5    6 ar
  11    5    7 1
  12    6   17 1
  13    7    8 1
  14    7    9 am
  15    8   10 1
  16    8   28 1
  17    8   29 1
  18    9   14 1
  19    9   15 2
  20    9   16 2
  21   10   11 am
  22   10   12 2
  23   11   13 1
  24   11   30 1
  25   13   18 ar
  26   13   22 ar
  27   14   31 1
  28   14   32 1
  29   14   33 1
  30   18   19 ar
  31   18   34 1
  32   19   20 ar
  33   19   35 1
  34   20   21 ar
  35   20   23 1
  36   21   22 ar
  37   22   36 1

#	End of record

