#	Name: ASD01148572
#	Creating user name:	WinNT
#	Creation time:	15. 06. 2019 19:02

#	Modifying user name:	WinNT
#	Modification time:	15. 06. 2019 19:02

#	Program:	/corina/corina34_cracker 3.40 0067  02.08.2006

@<TRIPOS>MOLECULE
ASD01148572
  51   55    0    0    0
SMALL
NO_CHARGES


@<TRIPOS>ATOM
   1 C1            -0.0169     1.4375    -0.0252 C.ar    
   2 C2             0.0192     0.0537    -0.0359 C.ar    
   3 C3            -1.1616    -0.6687    -0.0207 C.ar    
   4 C4            -2.3763    -0.0072     0.0050 C.ar    
   5 C5            -2.4112     1.3746     0.0152 C.ar    
   6 C6            -1.2326     2.0969     0.0064 C.ar    
   7 C7            -3.7351     2.0942     0.0423 C.3     
   8 O8            -4.7252     1.3265     0.7562 O.3     
   9 C9            -3.6503     3.3775     0.9025 C.3     
  10 C10           -4.1246     2.8962     2.2606 C.2     
  11 N11           -4.7069     1.7532     2.1041 N.2     
  12 C12           -3.9509     3.6088     3.5379 C.ar    
  13 C13           -4.4591     3.0283     4.7785 C.ar    
  14 C14           -3.2984     4.8334     3.5715 C.ar    
  15 C15           -3.1213     5.5244     4.7570 C.ar    
  16 C16           -3.5887     5.0227     5.9641 C.ar    
  17 C17           -4.2782     3.7350     5.9910 C.ar    
  18 C18           -3.3854     5.7814     7.2111 C.2     
  19 O19           -3.8874     5.3925     8.2481 O.2     
  20 N20           -2.6430     6.9062     7.2022 N.am    
  21 C21           -4.7658     3.1903     7.1856 C.ar    
  22 C22           -5.1182     1.7925     4.7927 C.ar    
  23 C23           -4.2096     2.4154    -1.3764 C.3     
  24 F24           -4.3426     1.2277    -2.1037 F       
  25 F25           -5.4459     3.0675    -1.3181 F       
  26 F26           -3.2741     3.2446    -2.0045 F       
  27 Cl27          -1.1182    -2.4041    -0.0347 Cl      
  28 Cl28           1.5442    -0.7752    -0.0688 Cl      
  29 Cl29           1.4629     2.3450    -0.0442 Cl      
  30 C30           -2.4515     7.6208     8.3767 C.ar    
  31 N31           -1.7192     8.7239     8.3499 N.ar    
  32 N32           -3.0100     7.1860     9.4960 N.ar    
  33 C33           -2.8475     7.8430    10.6324 C.ar    
  34 C34           -2.0823     8.9987    10.6416 C.ar    
  35 C35           -1.5170     9.4283     9.4511 C.ar    
  36 C36           -5.5762     1.2872     5.9731 C.ar    
  37 C37           -5.4031     1.9852     7.1654 C.ar    
  38 H38           -3.2977    -0.5705     0.0168 H       
  39 H39           -1.2611     3.1765     0.0147 H       
  40 H40           -2.6236     3.7395     0.9573 H       
  41 H41           -4.3136     4.1495     0.5123 H       
  42 H42           -2.9203     5.2559     2.6523 H       
  43 H43           -2.6080     6.4745     4.7430 H       
  44 H44           -2.2425     7.2164     6.3749 H       
  45 H45           -4.6375     3.7214     8.1171 H       
  46 H46           -5.2630     1.2434     3.8740 H       
  47 H47           -3.3058     7.4836    11.5420 H       
  48 H48           -1.9333     9.5547    11.5555 H       
  49 H49           -0.9153    10.3247     9.4237 H       
  50 H50           -6.0842     0.3342     5.9830 H       
  51 H51           -5.7784     1.5658     8.0872 H       
@<TRIPOS>BOND
   1    1    2 ar
   2    1   29 1
   3    1    6 ar
   4    2    3 ar
   5    2   28 1
   6    3    4 ar
   7    3   27 1
   8    4    5 ar
   9    4   38 1
  10    5    6 ar
  11    5    7 1
  12    6   39 1
  13    7    8 1
  14    7    9 1
  15    7   23 1
  16    8   11 1
  17    9   10 1
  18    9   40 1
  19    9   41 1
  20   10   11 2
  21   10   12 1
  22   12   13 ar
  23   12   14 ar
  24   13   22 ar
  25   13   17 ar
  26   14   15 ar
  27   14   42 1
  28   15   16 ar
  29   15   43 1
  30   16   17 ar
  31   16   18 1
  32   17   21 ar
  33   18   19 2
  34   18   20 am
  35   20   30 1
  36   20   44 1
  37   21   37 ar
  38   21   45 1
  39   22   36 ar
  40   22   46 1
  41   23   24 1
  42   23   25 1
  43   23   26 1
  44   30   31 ar
  45   30   32 ar
  46   31   35 ar
  47   32   33 ar
  48   33   34 ar
  49   33   47 1
  50   34   35 ar
  51   34   48 1
  52   35   49 1
  53   36   37 ar
  54   36   50 1
  55   37   51 1

#	End of record

