#	Name: ASD03731318
#	Creating user name:	WinNT
#	Creation time:	15. 06. 2019 20:45

#	Modifying user name:	WinNT
#	Modification time:	15. 06. 2019 20:45

#	Program:	/corina/corina34_cracker 3.40 0067  02.08.2006

@<TRIPOS>MOLECULE
ASD03731318
  62   68    0    0    0
SMALL
NO_CHARGES


@<TRIPOS>ATOM
   1 C1            -0.0190     1.4721     0.0328 C.2     
   2 C2            -0.0013    -0.0060     0.0370 C.ar    
   3 C3             1.2141    -0.6924     0.0452 C.ar    
   4 C4             1.2235    -2.0719     0.0490 C.ar    
   5 C5             0.0319    -2.7750     0.0449 C.ar    
   6 C6            -1.1763    -2.1008     0.0368 C.ar    
   7 C7            -1.2000    -0.7214     0.0387 C.ar    
   8 O8             1.0263     2.0925     0.0364 O.2     
   9 N9            -1.1942     2.1319     0.0193 N.am    
  10 C10           -1.2149     3.5256     0.1325 C.ar    
  11 C11           -2.1865     4.2635    -0.5316 C.ar    
  12 C12           -2.2042     5.6396    -0.4177 C.ar    
  13 C13           -1.2556     6.2832     0.3561 C.ar    
  14 C14           -0.2871     5.5516     1.0184 C.ar    
  15 C15           -0.2677     4.1744     0.9137 C.ar    
  16 C16           -3.2199     3.5632    -1.3758 C.3     
  17 F17           -4.0824     4.5103    -1.9382 F       
  18 F18           -2.5825     2.8490    -2.3960 F       
  19 F19           -3.9541     2.6801    -0.5769 F       
  20 C20            0.0499    -4.2819     0.0487 C.3     
  21 O21           -2.1541    -1.4825     6.2934 O.3     
  22 C22           -2.4024    -1.5560     7.7097 C.3     
  23 O23           -2.9055    -2.8915     7.9001 O.3     
  24 C24           -2.3662    -3.6333     6.8883 C.ar    
  25 C25           -1.9053    -2.7663     5.9001 C.ar    
  26 C26           -2.2282    -5.0004     6.7282 C.ar    
  27 C27           -1.6320    -5.5196     5.5830 C.ar    
  28 C28           -1.1829    -4.6439     4.5992 C.ar    
  29 C29           -1.3135    -3.2801     4.7585 C.ar    
  30 O30           -1.3859    -6.8165     5.2397 O.3     
  31 C31           -0.6220    -5.4947     3.4913 C.3     
  32 C32           -1.1538    -6.8963     3.8201 C.3     
  33 N33            0.0490    -4.7668     1.4311 N.am    
  34 C34           -1.0698    -5.0298     2.1355 C.2     
  35 C35            0.8769    -5.4607     3.4484 C.ar    
  36 C36            1.8620    -5.7665     4.3607 C.ar    
  37 C37            3.1943    -5.6299     4.0138 C.ar    
  38 C38            3.5342    -5.1850     2.7492 C.ar    
  39 C39            2.5512    -4.8764     1.8322 C.ar    
  40 C40            1.2074    -5.0113     2.1725 C.ar    
  41 O41           -2.2139    -4.9140     1.7497 O.2     
  42 H42            2.1449    -0.1448     0.0481 H       
  43 H43            2.1632    -2.6043     0.0550 H       
  44 H44           -2.1029    -2.6555     0.0336 H       
  45 H45           -2.1437    -0.1963     0.0369 H       
  46 H46           -2.0256     1.6400    -0.0689 H       
  47 H47           -2.9593     6.2139    -0.9338 H       
  48 H48           -1.2711     7.3596     0.4430 H       
  49 H49            0.4524     6.0572     1.6216 H       
  50 H50            0.4861     3.6032     1.4352 H       
  51 H51           -0.8331    -4.6571    -0.4686 H       
  52 H52            0.9467    -4.6358    -0.4599 H       
  53 H53           -1.4778    -1.4117     8.2686 H       
  54 H54           -3.1492    -0.8195     8.0063 H       
  55 H55           -2.5855    -5.6692     7.4972 H       
  56 H56           -0.9537    -2.6112     3.9907 H       
  57 H57           -0.4071    -7.6569     3.5921 H       
  58 H58           -2.0836    -7.0926     3.2862 H       
  59 H59            1.5943    -6.1136     5.3477 H       
  60 H60            3.9672    -5.8706     4.7288 H       
  61 H61            4.5743    -5.0782     2.4785 H       
  62 H62            2.8244    -4.5290     0.8468 H       
@<TRIPOS>BOND
   1    1    2 1
   2    1    8 2
   3    1    9 am
   4    2    3 ar
   5    2    7 ar
   6    3    4 ar
   7    3   42 1
   8    4    5 ar
   9    4   43 1
  10    5    6 ar
  11    5   20 1
  12    6    7 ar
  13    6   44 1
  14    7   45 1
  15    9   10 1
  16    9   46 1
  17   10   11 ar
  18   10   15 ar
  19   11   12 ar
  20   11   16 1
  21   12   13 ar
  22   12   47 1
  23   13   14 ar
  24   13   48 1
  25   14   15 ar
  26   14   49 1
  27   15   50 1
  28   16   17 1
  29   16   18 1
  30   16   19 1
  31   20   33 1
  32   20   51 1
  33   20   52 1
  34   21   22 1
  35   21   25 1
  36   22   23 1
  37   22   53 1
  38   22   54 1
  39   23   24 1
  40   24   25 ar
  41   24   26 ar
  42   25   29 ar
  43   26   27 ar
  44   26   55 1
  45   27   28 ar
  46   27   30 1
  47   28   29 ar
  48   28   31 1
  49   29   56 1
  50   30   32 1
  51   31   32 1
  52   31   34 1
  53   31   35 1
  54   32   57 1
  55   32   58 1
  56   33   34 am
  57   33   40 1
  58   34   41 2
  59   35   36 ar
  60   35   40 ar
  61   36   37 ar
  62   36   59 1
  63   37   38 ar
  64   37   60 1
  65   38   39 ar
  66   38   61 1
  67   39   40 ar
  68   39   62 1

#	End of record

