#	Name: ASD01813694
#	Creating user name:	WinNT
#	Creation time:	15. 06. 2019 19:30

#	Modifying user name:	WinNT
#	Modification time:	15. 06. 2019 19:30

#	Program:	/corina/corina34_cracker 3.40 0067  02.08.2006

@<TRIPOS>MOLECULE
ASD01813694
  46   50    0    0    0
SMALL
NO_CHARGES


@<TRIPOS>ATOM
   1 C1             0.0966     1.4746     0.3423 C.ar    
   2 C2             0.0785     0.0883     0.3344 C.ar    
   3 C3             1.2491    -0.6318     0.2088 C.ar    
   4 C4             2.4673     0.0343     0.0876 C.ar    
   5 C5             2.4840     1.4395     0.0953 C.ar    
   6 C6             1.2914     2.1558     0.2236 C.ar    
   7 N7             3.6437    -0.6744    -0.0375 N.pl3   
   8 C8             4.8384    -0.0816    -0.1557 C.2     
   9 C9             4.9808     1.2913    -0.1607 C.2     
  10 C10            3.7787     2.1315    -0.0336 C.2     
  11 O11            3.8513     3.3480    -0.0331 O.2     
  12 C12            6.3101     1.9041    -0.2916 C.2     
  13 O13            6.4362     3.2462    -0.2951 O.3     
  14 O14            7.2960     1.2006    -0.3967 O.2     
  15 C15            3.5837    -2.1382    -0.0406 C.3     
  16 C16            3.4403    -2.6321    -1.4571 C.ar    
  17 C17            4.5505    -2.7828    -2.2702 C.ar    
  18 C18            4.3786    -3.2406    -3.5707 C.ar    
  19 N19            3.1716    -3.5293    -4.0297 N.ar    
  20 C20            2.0956    -3.3958    -3.2791 C.ar    
  21 C21            2.1927    -2.9516    -1.9745 C.ar    
  22 F22            1.2141    -1.9823     0.2038 F       
  23 F23            1.3072     3.5067     0.2306 F       
  24 N24            5.4913    -3.3973    -4.4023 N.pl3   
  25 N25            6.8142    -3.1265    -4.0343 N.2     
  26 C26            7.6064    -3.3840    -5.0594 C.ar    
  27 C27            6.7441    -3.8497    -6.1574 C.ar    
  28 C28            5.4503    -3.8358    -5.6716 C.2     
  29 C29            8.9979    -3.3045    -5.2818 C.ar    
  30 C30            9.5044    -3.6555    -6.4902 C.ar    
  31 C31            8.6854    -4.0970    -7.5322 C.ar    
  32 C32            7.3403    -4.1982    -7.3883 C.ar    
  33 H33           -0.8284     2.0239     0.4372 H       
  34 H34           -0.8622    -0.4339     0.4279 H       
  35 H35            5.7201    -0.6982    -0.2500 H       
  36 H36            7.3307     3.6029    -0.3836 H       
  37 H37            4.4991    -2.5403     0.3935 H       
  38 H38            2.7273    -2.4680     0.5476 H       
  39 H39            5.5369    -2.5474    -1.8987 H       
  40 H40            1.1266    -3.6412    -3.6880 H       
  41 H41            1.3063    -2.8455    -1.3667 H       
  42 H42            4.5630    -4.1204    -6.2176 H       
  43 H43            9.6553    -2.9660    -4.4947 H       
  44 H44           10.5704    -3.5915    -6.6514 H       
  45 H45            9.1349    -4.3650    -8.4769 H       
  46 H46            6.7299    -4.5428    -8.2099 H       
@<TRIPOS>BOND
   1    1    2 ar
   2    1    6 ar
   3    1   33 1
   4    2    3 ar
   5    2   34 1
   6    3    4 ar
   7    3   22 1
   8    4    5 ar
   9    4    7 1
  10    5    6 ar
  11    5   10 1
  12    6   23 1
  13    7    8 1
  14    7   15 1
  15    8    9 2
  16    8   35 1
  17    9   10 1
  18    9   12 1
  19   10   11 2
  20   12   13 1
  21   12   14 2
  22   13   36 1
  23   15   16 1
  24   15   37 1
  25   15   38 1
  26   16   17 ar
  27   16   21 ar
  28   17   18 ar
  29   17   39 1
  30   18   19 ar
  31   18   24 1
  32   19   20 ar
  33   20   21 ar
  34   20   40 1
  35   21   41 1
  36   24   25 1
  37   24   28 1
  38   25   26 2
  39   26   27 ar
  40   26   29 ar
  41   27   28 2
  42   27   32 ar
  43   28   42 1
  44   29   30 ar
  45   29   43 1
  46   30   31 ar
  47   30   44 1
  48   31   32 ar
  49   31   45 1
  50   32   46 1

#	End of record

