#	Name: ASD01940122
#	Creating user name:	WinNT
#	Creation time:	15. 06. 2019 20:11

#	Modifying user name:	WinNT
#	Modification time:	15. 06. 2019 20:11

#	Program:	/corina/corina34_cracker 3.40 0067  02.08.2006

@<TRIPOS>MOLECULE
ASD01940122
  36   37    0    0    0
SMALL
NO_CHARGES


@<TRIPOS>ATOM
   1 F1             1.9035     1.5950     2.2857 F       
   2 C2             1.0649     2.1488     1.3828 C.ar    
   3 C3             1.3890     2.1336     0.0327 C.ar    
   4 C4             0.5204     2.7058    -0.8952 C.ar    
   5 C5            -0.6632     3.2876    -0.4661 C.ar    
   6 C6            -0.9805     3.3003     0.8797 C.ar    
   7 C7            -0.1221     2.7275     1.8027 C.ar    
   8 N8             2.5867     1.5447    -0.3959 N.pl3   
   9 N9             0.8425     2.6937    -2.2589 N.am    
  10 C10            2.6332     0.1745    -0.6697 C.ar    
  11 C11            1.4781    -0.5913    -0.5871 C.ar    
  12 C12            1.5273    -1.9453    -0.8582 C.ar    
  13 C13            2.7248    -2.5390    -1.2111 C.ar    
  14 C14            3.8787    -1.7805    -1.2948 C.ar    
  15 C15            3.8362    -0.4242    -1.0311 C.ar    
  16 F16            4.9629     0.3168    -1.1133 F       
  17 F17           -0.4399     2.7374     3.1157 F       
  18 S18            0.4260     3.9766    -3.2195 S.o2    
  19 O19            0.9907     3.6643    -4.4856 O.2     
  20 O20           -0.9802     4.0964    -3.0540 O.2     
  21 C21            2.7735    -4.0163    -1.5049 C.3     
  22 F22            2.5351    -4.2290    -2.8669 F       
  23 F23            4.0357    -4.5172    -1.1685 F       
  24 F24            1.7949    -4.6740    -0.7519 F       
  25 C25            1.2777     5.3948    -2.4751 C.3     
  26 O26            0.9884     6.5736    -3.2292 O.3     
  27 H27           -1.3374     3.7314    -1.1836 H       
  28 H28           -1.9026     3.7543     1.2113 H       
  29 H29            3.3832     2.0879    -0.5026 H       
  30 H30            1.3095     1.9338    -2.6402 H       
  31 H31            0.5419    -0.1291    -0.3108 H       
  32 H32            0.6287    -2.5409    -0.7939 H       
  33 H33            4.8125    -2.2475    -1.5708 H       
  34 H34            0.9349     5.5267    -1.4488 H       
  35 H35            2.3529     5.2158    -2.4788 H       
  36 H36            1.4119     7.3730    -2.8874 H       
@<TRIPOS>BOND
   1    1    2 1
   2    2    3 ar
   3    2    7 ar
   4    3    4 ar
   5    3    8 1
   6    4    5 ar
   7    4    9 1
   8    5    6 ar
   9    5   27 1
  10    6    7 ar
  11    6   28 1
  12    7   17 1
  13    8   10 1
  14    8   29 1
  15    9   18 am
  16    9   30 1
  17   10   11 ar
  18   10   15 ar
  19   11   12 ar
  20   11   31 1
  21   12   13 ar
  22   12   32 1
  23   13   14 ar
  24   13   21 1
  25   14   15 ar
  26   14   33 1
  27   15   16 1
  28   18   19 2
  29   18   20 2
  30   18   25 1
  31   21   22 1
  32   21   23 1
  33   21   24 1
  34   25   26 1
  35   25   34 1
  36   25   35 1
  37   26   36 1

#	End of record

