#	Name: ASD09740159
#	Creating user name:	WinNT
#	Creation time:	15. 06. 2019 21:22

#	Modifying user name:	WinNT
#	Modification time:	15. 06. 2019 21:22

#	Program:	/corina/corina34_cracker 3.40 0067  02.08.2006

@<TRIPOS>MOLECULE
ASD09740159
  37   39    0    0    0
SMALL
NO_CHARGES


@<TRIPOS>ATOM
   1 S1            -0.0172     1.4168     0.0098 S.o2    
   2 O2            -4.5906     3.0025    -6.3444 O.3     
   3 N3            -4.1233     2.3794    -5.4148 N.2     
   4 C4            -4.0223     4.2157    -6.4133 C.2     
   5 N5            -3.1493     4.2865    -5.4280 N.2     
   6 C6            -3.2241     3.0981    -4.7930 C.2     
   7 C7            -2.4329     2.6833    -3.6074 C.ar    
   8 C8            -4.3188     5.2736    -7.4069 C.2     
   9 C9            -2.6154     1.4184    -3.0529 C.ar    
  10 C10           -1.5010     3.5554    -3.0489 C.ar    
  11 C11           -0.7677     3.1644    -1.9468 C.ar    
  12 C12           -0.9567     1.9094    -1.3970 C.ar    
  13 C13           -1.8768     1.0376    -1.9508 C.ar    
  14 O14            0.0021    -0.0041     0.0020 O.2     
  15 O15            1.1617     2.2101     0.0028 O.2     
  16 N16           -0.8748     1.8654     1.3536 N.am    
  17 C17           -5.2590     5.2064    -8.4736 C.2     
  18 C18           -5.1506     6.4107    -9.0794 C.2     
  19 O19           -4.2204     7.0996    -8.4033 O.3     
  20 N20           -3.7725     6.4629    -7.4783 N.2     
  21 C21           -5.9249     6.8859   -10.2818 C.3     
  22 C22           -6.7254     8.1361    -9.9114 C.3     
  23 C23           -4.9528     7.2199   -11.4151 C.3     
  24 H24           -3.3339     0.7371    -3.4843 H       
  25 H25           -1.3525     4.5355    -3.4776 H       
  26 H26           -0.0448     3.8396    -1.5132 H       
  27 H27           -2.0208     0.0589    -1.5174 H       
  28 H28           -0.7362     2.7410     1.7474 H       
  29 H29           -1.5157     1.2527     1.7468 H       
  30 H30           -5.9082     4.3847    -8.7377 H       
  31 H31           -6.6073     6.1009   -10.6079 H       
  32 H32           -7.2855     8.4797   -10.7810 H       
  33 H33           -7.4180     7.8981    -9.1040 H       
  34 H34           -6.0431     8.9210    -9.5853 H       
  35 H35           -4.3825     6.3293   -11.6789 H       
  36 H36           -5.5129     7.5636   -12.2847 H       
  37 H37           -4.2705     8.0049   -11.0889 H       
@<TRIPOS>BOND
   1    1   14 2
   2    1   15 2
   3    1   16 am
   4    1   12 1
   5    2    3 1
   6    2    4 1
   7    3    6 2
   8    4    5 2
   9    4    8 1
  10    5    6 1
  11    6    7 1
  12    7    9 ar
  13    7   10 ar
  14    8   17 1
  15    8   20 2
  16    9   13 ar
  17    9   24 1
  18   10   11 ar
  19   10   25 1
  20   11   12 ar
  21   11   26 1
  22   12   13 ar
  23   13   27 1
  24   16   28 1
  25   16   29 1
  26   17   18 2
  27   17   30 1
  28   18   19 1
  29   18   21 1
  30   19   20 1
  31   21   22 1
  32   21   23 1
  33   21   31 1
  34   22   32 1
  35   22   33 1
  36   22   34 1
  37   23   35 1
  38   23   36 1
  39   23   37 1

#	End of record

