#	Name: ASD03430686
#	Creating user name:	WinNT
#	Creation time:	15. 06. 2019 20:41

#	Modifying user name:	WinNT
#	Modification time:	15. 06. 2019 20:41

#	Program:	/corina/corina34_cracker 3.40 0067  02.08.2006

@<TRIPOS>MOLECULE
ASD03430686
  57   63    0    0    0
SMALL
NO_CHARGES


@<TRIPOS>ATOM
   1 C1             2.6491     0.3858    -0.0156 C.ar    
   2 C2             2.0813    -0.8782    -0.0513 C.ar    
   3 C3             2.8723    -1.9833    -0.2662 C.ar    
   4 C4             4.2521    -1.8558    -0.4404 C.ar    
   5 C5             4.8265    -0.5944    -0.4103 C.ar    
   6 C6             4.0328     0.5315    -0.1983 C.ar    
   7 O7             4.8412    -3.0743    -0.6100 O.3     
   8 C8             2.5611    -3.4518    -0.3819 C.3     
   9 C9             3.8409    -4.0366    -0.9946 C.3     
  10 C10            0.9666    -4.6232     0.8040 C.ar    
  11 C11            2.2393    -4.0745     0.9440 C.ar    
  12 C12            1.3600    -3.7110    -1.2454 C.2     
  13 N13            0.4805    -4.3934    -0.4853 N.am    
  14 O14            1.2104    -3.3721    -2.4004 O.2     
  15 C15            2.9197    -4.1788     2.1362 C.ar    
  16 C16            2.3414    -4.8337     3.2095 C.ar    
  17 C17            1.0787    -5.3821     3.0818 C.ar    
  18 C18            0.3923    -5.2796     1.8893 C.ar    
  19 C19           -0.8322    -4.8418    -0.9564 C.3     
  20 O20            2.1574     1.6319     0.1633 O.3     
  21 C21            3.1804     2.4983     0.0975 C.2     
  22 N22            4.2942     1.8650    -0.1165 N.2     
  23 C23            3.0542     3.9926     0.2457 C.3     
  24 C24           -1.9124    -4.1670    -0.1509 C.ar    
  25 C25           -3.0595    -4.8612     0.1855 C.ar    
  26 C26           -4.0503    -4.2422     0.9243 C.ar    
  27 C27           -3.8939    -2.9291     1.3272 C.ar    
  28 C28           -2.7464    -2.2352     0.9916 C.ar    
  29 C29           -1.7536    -2.8556     0.2564 C.ar    
  30 C30           -0.9928    -4.4839    -2.4115 C.ar    
  31 C31           -0.9622    -5.4751    -3.3745 C.ar    
  32 C32           -1.1096    -5.1468    -4.7092 C.ar    
  33 C33           -1.2879    -3.8273    -5.0808 C.ar    
  34 C34           -1.3195    -2.8362    -4.1177 C.ar    
  35 C35           -1.1765    -3.1650    -2.7826 C.ar    
  36 H36            1.0171    -0.9957     0.0900 H       
  37 H37            5.8916    -0.4839    -0.5508 H       
  38 H38            3.7582    -4.0958    -2.0799 H       
  39 H39            4.0616    -5.0153    -0.5685 H       
  40 H40            3.9059    -3.7494     2.2340 H       
  41 H41            2.8754    -4.9165     4.1446 H       
  42 H42            0.6276    -5.8935     3.9193 H       
  43 H43           -0.5940    -5.7100     1.7975 H       
  44 H44           -0.9114    -5.9223    -0.8372 H       
  45 H45            3.1641     4.2642     1.2956 H       
  46 H46            3.8321     4.4828    -0.3397 H       
  47 H47            2.0751     4.3118    -0.1115 H       
  48 H48           -3.1817    -5.8870    -0.1293 H       
  49 H49           -4.9468    -4.7843     1.1866 H       
  50 H50           -4.6684    -2.4453     1.9039 H       
  51 H51           -2.6243    -1.2092     1.3060 H       
  52 H52           -0.8555    -2.3146    -0.0026 H       
  53 H53           -0.8229    -6.5060    -3.0842 H       
  54 H54           -1.0849    -5.9211    -5.4617 H       
  55 H55           -1.4023    -3.5708    -6.1236 H       
  56 H56           -1.4585    -1.8053    -4.4080 H       
  57 H57           -1.2048    -2.3911    -2.0299 H       
@<TRIPOS>BOND
   1    1    2 ar
   2    1    6 ar
   3    1   20 1
   4    2    3 ar
   5    2   36 1
   6    3    4 ar
   7    3    8 1
   8    4    5 ar
   9    4    7 1
  10    5    6 ar
  11    5   37 1
  12    6   22 1
  13    7    9 1
  14    8    9 1
  15    8   11 1
  16    8   12 1
  17    9   38 1
  18    9   39 1
  19   10   11 ar
  20   10   13 1
  21   10   18 ar
  22   11   15 ar
  23   12   13 am
  24   12   14 2
  25   13   19 1
  26   15   16 ar
  27   15   40 1
  28   16   17 ar
  29   16   41 1
  30   17   18 ar
  31   17   42 1
  32   18   43 1
  33   19   24 1
  34   19   30 1
  35   19   44 1
  36   20   21 1
  37   21   22 2
  38   21   23 1
  39   23   45 1
  40   23   46 1
  41   23   47 1
  42   24   25 ar
  43   24   29 ar
  44   25   26 ar
  45   25   48 1
  46   26   27 ar
  47   26   49 1
  48   27   28 ar
  49   27   50 1
  50   28   29 ar
  51   28   51 1
  52   29   52 1
  53   30   31 ar
  54   30   35 ar
  55   31   32 ar
  56   31   53 1
  57   32   33 ar
  58   32   54 1
  59   33   34 ar
  60   33   55 1
  61   34   35 ar
  62   34   56 1
  63   35   57 1

#	End of record

