#	Name: ASD00069190
#	Creating user name:	WinNT
#	Creation time:	15. 06. 2019 18:29

#	Modifying user name:	WinNT
#	Modification time:	15. 06. 2019 18:29

#	Program:	/corina/corina34_cracker 3.40 0067  02.08.2006

@<TRIPOS>MOLECULE
ASD00069190
  70   75    0    0    0
SMALL
NO_CHARGES


@<TRIPOS>ATOM
   1 C1            -0.0972     1.1981    -0.5382 C.2     
   2 N2             0.0007    -0.0058    -0.0196 N.2     
   3 C3             1.2451    -0.4623    -0.2084 C.2     
   4 C4             1.9523     0.5002    -0.8739 C.2     
   5 N5             1.1116     1.5384    -1.0796 N.pl3   
   6 C6            -1.3088     2.0381    -0.5413 C.2     
   7 O7            -1.2828     3.1410    -1.0532 O.2     
   8 N8            -2.4452     1.5838     0.0232 N.am    
   9 C9             1.4694    -3.9041     1.2924 C.ar    
  10 C10            0.9451    -2.6883     0.9045 C.ar    
  11 C11            1.7655    -1.7809     0.2282 C.ar    
  12 C12            3.0898    -2.1503    -0.0261 C.ar    
  13 C13            3.5327    -3.3860     0.3969 C.ar    
  14 N14            2.7253    -4.2138     1.0328 N.ar    
  15 C15            0.5975    -4.8890     2.0278 C.3     
  16 C16           -3.5605     2.4244     0.1262 C.ar    
  17 C17           -4.8463     1.8957     0.0209 C.ar    
  18 C18           -5.9478     2.7348     0.1239 C.ar    
  19 C19           -5.7664     4.0914     0.3305 C.ar    
  20 C20           -4.4906     4.6142     0.4343 C.ar    
  21 C21           -3.3890     3.7844     0.3390 C.ar    
  22 F22           -7.1958     2.2275     0.0220 F       
  23 N23           -5.0263     0.5224    -0.1887 N.3     
  24 C24           -5.7974    -0.0803     0.9061 C.3     
  25 C25           -5.8498    -1.5984     0.7194 C.3     
  26 C26           -6.5033    -1.9199    -0.6275 C.3     
  27 C27           -5.7089    -1.2406    -1.7464 C.3     
  28 C28           -5.6606     0.2671    -1.4883 C.3     
  29 C29           -6.5035    -3.4113    -0.8439 C.2     
  30 O30           -6.0281    -4.1460    -0.0042 O.2     
  31 C31           -7.1311    -5.3538    -2.3739 C.3     
  32 C32           -6.1361    -5.5640    -3.5272 C.3     
  33 N33           -6.5500    -4.7394    -4.6712 N.3     
  34 C34           -6.6856    -3.3244    -4.2977 C.3     
  35 C35           -7.6567    -3.2121    -3.1107 C.3     
  36 C36           -8.9073    -4.0586    -3.4460 C.3     
  37 C37           -8.5585    -5.4804    -2.9568 C.3     
  38 N38           -7.0321    -3.9286    -1.9706 N.am    
  39 H39            2.9872     0.4422    -1.1773 H       
  40 H40            1.3259     2.3709    -1.5289 H       
  41 H41           -2.4905     0.6746     0.3582 H       
  42 H42           -0.0840    -2.4415     1.1200 H       
  43 H43            3.7560    -1.4780    -0.5462 H       
  44 H44            4.5539    -3.6804     0.2048 H       
  45 H45            0.0963    -5.5377     1.3095 H       
  46 H46            1.2136    -5.4926     2.6943 H       
  47 H47           -0.1479    -4.3491     2.6117 H       
  48 H48           -6.6237     4.7434     0.4105 H       
  49 H49           -4.3543     5.6734     0.5951 H       
  50 H50           -2.3942     4.1960     0.4254 H       
  51 H51           -5.3197     0.1523     1.8578 H       
  52 H52           -6.8107     0.3214     0.9007 H       
  53 H53           -4.8376    -2.0025     0.7385 H       
  54 H54           -6.4353    -2.0439     1.5236 H       
  55 H55           -7.5286    -1.5500    -0.6324 H       
  56 H56           -4.6945    -1.6391    -1.7661 H       
  57 H57           -6.1938    -1.4305    -2.7039 H       
  58 H58           -6.6745     0.6672    -1.4824 H       
  59 H59           -5.0835     0.7521    -2.2756 H       
  60 H60           -6.9576    -6.0427    -1.5473 H       
  61 H61           -5.1375    -5.2677    -3.2062 H       
  62 H62           -6.1310    -6.6146    -3.8177 H       
  63 H63           -5.9126    -4.8494    -5.4456 H       
  64 H64           -5.7117    -2.9277    -4.0111 H       
  65 H65           -7.0768    -2.7596    -5.1439 H       
  66 H66           -7.9063    -2.1771    -2.8772 H       
  67 H67           -9.7786    -3.6767    -2.9138 H       
  68 H68           -9.0881    -4.0603    -4.5209 H       
  69 H69           -8.5675    -6.1821    -3.7908 H       
  70 H70           -9.2579    -5.7985    -2.1837 H       
@<TRIPOS>BOND
   1    1    2 2
   2    1    5 1
   3    1    6 1
   4    2    3 1
   5    3    4 2
   6    3   11 1
   7    4    5 1
   8    4   39 1
   9    5   40 1
  10    6    7 2
  11    6    8 am
  12    8   16 1
  13    8   41 1
  14    9   10 ar
  15    9   14 ar
  16    9   15 1
  17   10   11 ar
  18   10   42 1
  19   11   12 ar
  20   12   13 ar
  21   12   43 1
  22   13   14 ar
  23   13   44 1
  24   15   45 1
  25   15   46 1
  26   15   47 1
  27   16   17 ar
  28   16   21 ar
  29   17   18 ar
  30   17   23 1
  31   18   19 ar
  32   18   22 1
  33   19   20 ar
  34   19   48 1
  35   20   21 ar
  36   20   49 1
  37   21   50 1
  38   23   24 1
  39   23   28 1
  40   24   25 1
  41   24   51 1
  42   24   52 1
  43   25   26 1
  44   25   53 1
  45   25   54 1
  46   26   27 1
  47   26   29 1
  48   26   55 1
  49   27   28 1
  50   27   56 1
  51   27   57 1
  52   28   58 1
  53   28   59 1
  54   29   30 2
  55   29   38 am
  56   31   32 1
  57   31   37 1
  58   31   38 1
  59   31   60 1
  60   32   33 1
  61   32   61 1
  62   32   62 1
  63   33   34 1
  64   33   63 1
  65   34   35 1
  66   34   64 1
  67   34   65 1
  68   35   36 1
  69   35   38 1
  70   35   66 1
  71   36   37 1
  72   36   67 1
  73   36   68 1
  74   37   69 1
  75   37   70 1

#	End of record

