#	Name: ASD00191018
#	Creating user name:	WinNT
#	Creation time:	15. 06. 2019 18:33

#	Modifying user name:	WinNT
#	Modification time:	15. 06. 2019 18:33

#	Program:	/corina/corina34_cracker 3.40 0067  02.08.2006

@<TRIPOS>MOLECULE
ASD00191018
  43   46    0    0    0
SMALL
NO_CHARGES


@<TRIPOS>ATOM
   1 C1             0.5640     1.4330     1.1165 C.ar    
   2 C2             0.5320    -0.0445     1.0965 C.2     
   3 O3             1.5697    -0.6756     1.1464 O.2     
   4 N4            -0.6477    -0.6921     1.0230 N.am    
   5 N5            -0.7151    -4.8137     0.4270 N.ar    
   6 C6             0.3154    -4.1020     0.0148 C.ar    
   7 C7             0.3709    -2.7167     0.1983 C.ar    
   8 C8            -0.6743    -2.0683     0.8257 C.ar    
   9 C9            -1.7748    -2.8469     1.2631 C.ar    
  10 C10           -2.8709    -2.2584     1.9067 C.ar    
  11 C11           -3.9127    -3.0381     2.3136 C.ar    
  12 C12           -3.9009    -4.4130     2.0975 C.ar    
  13 C13           -2.8504    -5.0163     1.4747 C.ar    
  14 C14           -1.7593    -4.2444     1.0417 C.ar    
  15 N15            1.3718    -4.7438    -0.6168 N.pl3   
  16 C16            1.4456    -6.1401    -0.6111 C.ar    
  17 C17            2.6776    -6.7722    -0.7228 C.ar    
  18 C18            2.7482    -8.1514    -0.7170 C.ar    
  19 C19            1.5932    -8.9044    -0.6000 C.ar    
  20 C20            0.3635    -8.2774    -0.4885 C.ar    
  21 C21            0.2880    -6.8972    -0.4880 C.ar    
  22 C22            1.7842     2.1069     1.1926 C.ar    
  23 C23            1.8070     3.4861     1.2109 C.ar    
  24 C24            0.6239     4.2014     1.1545 C.ar    
  25 C25           -0.5889     3.5397     1.0795 C.ar    
  26 C26           -0.6255     2.1609     1.0536 C.ar    
  27 Cl27           1.6858   -10.6379    -0.5936 Cl      
  28 Cl28          -1.0835    -9.2254    -0.3419 Cl      
  29 H29           -1.4782    -0.1981     1.1078 H       
  30 H30            1.2270    -2.1571    -0.1486 H       
  31 H31           -2.8906    -1.1926     2.0800 H       
  32 H32           -4.7573    -2.5834     2.8101 H       
  33 H33           -4.7372    -5.0107     2.4289 H       
  34 H34           -2.8563    -6.0843     1.3141 H       
  35 H35            2.0589    -4.2236    -1.0621 H       
  36 H36            3.5796    -6.1854    -0.8145 H       
  37 H37            3.7060    -8.6428    -0.8041 H       
  38 H38           -0.6706    -6.4082    -0.3963 H       
  39 H39            2.7083     1.5497     1.2374 H       
  40 H40            2.7503     4.0086     1.2697 H       
  41 H41            0.6473     5.2810     1.1695 H       
  42 H42           -1.5088     4.1040     1.0364 H       
  43 H43           -1.5728     1.6456     0.9946 H       
@<TRIPOS>BOND
   1    1    2 1
   2    1   22 ar
   3    1   26 ar
   4    2    3 2
   5    2    4 am
   6    4    8 1
   7    4   29 1
   8    5    6 ar
   9    5   14 ar
  10    6    7 ar
  11    6   15 1
  12    7    8 ar
  13    7   30 1
  14    8    9 ar
  15    9   10 ar
  16    9   14 ar
  17   10   11 ar
  18   10   31 1
  19   11   12 ar
  20   11   32 1
  21   12   13 ar
  22   12   33 1
  23   13   14 ar
  24   13   34 1
  25   15   16 1
  26   15   35 1
  27   16   17 ar
  28   16   21 ar
  29   17   18 ar
  30   17   36 1
  31   18   19 ar
  32   18   37 1
  33   19   20 ar
  34   19   27 1
  35   20   21 ar
  36   20   28 1
  37   21   38 1
  38   22   23 ar
  39   22   39 1
  40   23   24 ar
  41   23   40 1
  42   24   25 ar
  43   24   41 1
  44   25   26 ar
  45   25   42 1
  46   26   43 1

#	End of record

