#	Name: ASD02560396
#	Creating user name:	WinNT
#	Creation time:	15. 06. 2019 20:25

#	Modifying user name:	WinNT
#	Modification time:	15. 06. 2019 20:25

#	Program:	/corina/corina34_cracker 3.40 0067  02.08.2006

@<TRIPOS>MOLECULE
ASD02560396
  45   47    0    0    0
SMALL
NO_CHARGES


@<TRIPOS>ATOM
   1 C1             0.1383     1.3854     1.1249 C.2     
   2 C2             0.1578    -0.0206     1.1029 C.2     
   3 C3             1.2858    -0.6815     0.7741 C.2     
   4 N4             2.4269     0.0043     0.4573 N.pl3   
   5 C5             2.4375     1.3801     0.4698 C.2     
   6 C6             1.2634     2.0817     0.8123 C.2     
   7 C7             3.6820    -0.4025     0.0948 C.2     
   8 C8             4.4224     0.7172    -0.1035 C.2     
   9 N9             3.6506     1.7851     0.1286 N.2     
  10 C10            5.8715     0.7520    -0.5158 C.3     
  11 N11            4.1201    -1.7252    -0.0446 N.3     
  12 C12            2.9997    -2.6669     0.0813 C.3     
  13 C13            3.3441    -3.9692    -0.6442 C.3     
  14 C14            2.7435    -2.9598     1.5610 C.3     
  15 C15            1.5766    -3.9406     1.6922 C.3     
  16 C16            1.9210    -5.2429     0.9667 C.3     
  17 C17            2.1772    -4.9500    -0.5130 C.3     
  18 C18            6.7179     0.0294     0.5341 C.3     
  19 C19            6.0337     0.0562    -1.8687 C.3     
  20 C20            6.3341     2.2058    -0.6313 C.3     
  21 H21           -0.7689     1.9106     1.3850 H       
  22 H22           -0.7358    -0.5740     1.3512 H       
  23 H23            1.2891    -1.7614     0.7609 H       
  24 H24            1.2578     3.1616     0.8258 H       
  25 H25            4.6050    -1.8551    -0.9199 H       
  26 H26            2.1056    -2.2292    -0.3626 H       
  27 H27            3.5266    -3.7605    -1.6984 H       
  28 H28            4.2383    -4.4069    -0.2003 H       
  29 H29            3.6377    -3.3975     2.0048 H       
  30 H30            2.4982    -2.0320     2.0778 H       
  31 H31            1.3941    -4.1493     2.7463 H       
  32 H32            0.6825    -3.5029     1.2483 H       
  33 H33            2.8152    -5.6806     1.4105 H       
  34 H34            1.0897    -5.9417     1.0601 H       
  35 H35            1.2830    -4.5123    -0.9569 H       
  36 H36            2.4225    -5.8778    -1.0299 H       
  37 H37            6.3884    -1.0063     0.6164 H       
  38 H38            7.7661     0.0546     0.2360 H       
  39 H39            6.6024     0.5252     1.4980 H       
  40 H40            5.4307     0.5709    -2.6167 H       
  41 H41            7.0818     0.0813    -2.1669 H       
  42 H42            5.7042    -0.9796    -1.7864 H       
  43 H43            6.2185     2.7016     0.3325 H       
  44 H44            7.3822     2.2310    -0.9295 H       
  45 H45            5.7311     2.7206    -1.3793 H       
@<TRIPOS>BOND
   1    1    2 1
   2    1    6 2
   3    1   21 1
   4    2    3 2
   5    2   22 1
   6    3    4 1
   7    3   23 1
   8    4    5 1
   9    4    7 1
  10    5    6 1
  11    5    9 2
  12    6   24 1
  13    7    8 2
  14    7   11 1
  15    8    9 1
  16    8   10 1
  17   10   19 1
  18   10   20 1
  19   10   18 1
  20   11   12 1
  21   11   25 1
  22   12   13 1
  23   12   14 1
  24   12   26 1
  25   13   17 1
  26   13   27 1
  27   13   28 1
  28   14   15 1
  29   14   29 1
  30   14   30 1
  31   15   16 1
  32   15   31 1
  33   15   32 1
  34   16   17 1
  35   16   33 1
  36   16   34 1
  37   17   35 1
  38   17   36 1
  39   18   37 1
  40   18   38 1
  41   18   39 1
  42   19   40 1
  43   19   41 1
  44   19   42 1
  45   20   43 1
  46   20   44 1
  47   20   45 1

#	End of record

