#	Name: ASD01880423
#	Creating user name:	WinNT
#	Creation time:	15. 06. 2019 19:40

#	Modifying user name:	WinNT
#	Modification time:	15. 06. 2019 19:40

#	Program:	/corina/corina34_cracker 3.40 0067  02.08.2006

@<TRIPOS>MOLECULE
ASD01880423
  25   25    0    0    0
SMALL
NO_CHARGES


@<TRIPOS>ATOM
   1 O1            -0.0161     1.3381     0.0094 O.3     
   2 C2             0.0021    -0.0041     0.0020 C.2     
   3 O3             1.0565    -0.5939    -0.0112 O.2     
   4 C4            -1.2926    -0.7753     0.0102 C.3     
   5 N5            -1.0054    -2.2118    -0.0002 N.pl3   
   6 C6            -2.0546    -3.1338     0.0048 C.ar    
   7 C7            -1.7841    -4.4963    -0.0051 C.ar    
   8 C8            -2.8238    -5.4052     0.0005 C.ar    
   9 C9            -4.1331    -4.9603     0.0158 C.ar    
  10 C10           -4.4059    -3.6047     0.0257 C.ar    
  11 C11           -3.3709    -2.6904     0.0256 C.ar    
  12 P12           -5.4957    -6.1578     0.0225 P.3     
  13 O13           -5.4646    -6.9335     1.2825 O.2     
  14 O14           -6.8982    -5.3754    -0.0917 O.3     
  15 O15           -5.3364    -7.1590    -1.2283 O.3     
  16 H16            0.8394     1.7888     0.0037 H       
  17 H17           -1.8592    -0.5245     0.9070 H       
  18 H18           -1.8762    -0.5150    -0.8728 H       
  19 H19           -0.0866    -2.5226    -0.0107 H       
  20 H20           -0.7618    -4.8444    -0.0174 H       
  21 H21           -2.6142    -6.4646    -0.0076 H       
  22 H22           -5.4296    -3.2606     0.0377 H       
  23 H23           -3.5847    -1.6318     0.0337 H       
  24 H24           -7.6726    -5.9546    -0.0940 H       
  25 H25           -5.3480    -6.7182    -2.0889 H       
@<TRIPOS>BOND
   1    1    2 1
   2    1   16 1
   3    2    3 2
   4    2    4 1
   5    4    5 1
   6    4   17 1
   7    4   18 1
   8    5    6 1
   9    5   19 1
  10    6    7 ar
  11    6   11 ar
  12    7    8 ar
  13    7   20 1
  14    8    9 ar
  15    8   21 1
  16    9   10 ar
  17    9   12 1
  18   10   11 ar
  19   10   22 1
  20   11   23 1
  21   12   13 2
  22   12   14 1
  23   12   15 1
  24   14   24 1
  25   15   25 1

#	End of record

