#	Name: ASD00071068
#	Creating user name:	WinNT
#	Creation time:	15. 06. 2019 18:30

#	Modifying user name:	WinNT
#	Modification time:	15. 06. 2019 18:30

#	Program:	/corina/corina34_cracker 3.40 0067  02.08.2006

@<TRIPOS>MOLECULE
ASD00071068
  39   41    0    0    0
SMALL
NO_CHARGES


@<TRIPOS>ATOM
   1 N1            -0.0158     1.3112     0.0093 N.ar    
   2 C2             0.0021    -0.0041     0.0020 C.ar    
   3 C3             1.2120    -0.7228    -0.0129 C.ar    
   4 C4             2.4005    -0.0496    -0.0206 C.ar    
   5 C5             2.3697     1.3603    -0.0132 C.ar    
   6 C6             3.5543     2.1114    -0.0199 C.ar    
   7 C7             3.4850     3.4882    -0.0119 C.ar    
   8 C8             2.2460     4.1371     0.0028 C.ar    
   9 C9             1.0849     3.4282     0.0100 C.ar    
  10 C10            1.1185     2.0237     0.0022 C.ar    
  11 N11           -1.2003    -0.6992     0.0098 N.pl3   
  12 N12            4.6622     4.2417    -0.0181 N.3     
  13 C13            4.3661     5.6816    -0.0078 C.3     
  14 C14            5.6793     6.4668     0.0454 C.3     
  15 O15            6.4991     6.0906    -1.0645 O.3     
  16 C16            6.8075     4.6947    -1.1053 C.3     
  17 C17            5.5057     3.8915    -1.1701 C.3     
  18 O18            1.1979    -2.0822    -0.0193 O.3     
  19 C19            2.4643    -2.7441    -0.0345 C.3     
  20 C20            2.2482    -4.2587    -0.0396 C.3     
  21 H21            3.3394    -0.5832    -0.0318 H       
  22 H22            4.5134     1.6149    -0.0309 H       
  23 H23            2.2107     5.2165     0.0089 H       
  24 H24            0.1369     3.9454     0.0218 H       
  25 H25           -2.0406    -0.2148     0.0204 H       
  26 H26           -1.1998    -1.6692     0.0046 H       
  27 H27            3.8195     5.9473    -0.9126 H       
  28 H28            3.7622     5.9228     0.8670 H       
  29 H29            5.4671     7.5348    -0.0044 H       
  30 H30            6.2006     6.2416     0.9758 H       
  31 H31            7.4113     4.4810    -1.9873 H       
  32 H32            7.3616     4.4180    -0.2084 H       
  33 H33            5.7338     2.8260    -1.1438 H       
  34 H34            4.9774     4.1286    -2.0935 H       
  35 H35            3.0158    -2.4527    -0.9284 H       
  36 H36            3.0328    -2.4612     0.8515 H       
  37 H37            1.6967    -4.5500     0.8543 H       
  38 H38            1.6797    -4.5416    -0.9256 H       
  39 H39            3.2141    -4.7635    -0.0512 H       
@<TRIPOS>BOND
   1    1    2 ar
   2    1   10 ar
   3    2    3 ar
   4    2   11 1
   5    3    4 ar
   6    3   18 1
   7    4    5 ar
   8    4   21 1
   9    5    6 ar
  10    5   10 ar
  11    6    7 ar
  12    6   22 1
  13    7    8 ar
  14    7   12 1
  15    8    9 ar
  16    8   23 1
  17    9   10 ar
  18    9   24 1
  19   11   25 1
  20   11   26 1
  21   12   13 1
  22   12   17 1
  23   13   14 1
  24   13   27 1
  25   13   28 1
  26   14   15 1
  27   14   29 1
  28   14   30 1
  29   15   16 1
  30   16   17 1
  31   16   31 1
  32   16   32 1
  33   17   33 1
  34   17   34 1
  35   18   19 1
  36   19   20 1
  37   19   35 1
  38   19   36 1
  39   20   37 1
  40   20   38 1
  41   20   39 1

#	End of record

