#	Name: ASD08178096
#	Creating user name:	WinNT
#	Creation time:	15. 06. 2019 21:18

#	Modifying user name:	WinNT
#	Modification time:	15. 06. 2019 21:18

#	Program:	/corina/corina34_cracker 3.40 0067  02.08.2006

@<TRIPOS>MOLECULE
ASD08178096
  59   64    0    0    0
SMALL
NO_CHARGES


@<TRIPOS>ATOM
   1 C1            -0.0184     1.5028     0.0103 C.2     
   2 C2             0.0021    -0.0041     0.0020 C.3     
   3 C3             0.0221    -0.5218     1.4416 C.3     
   4 C4             0.0906    -4.2741     3.3609 C.3     
   5 C5             0.1086    -4.6210     4.8273 C.2     
   6 N6            -0.9280    -4.8110     5.5780 N.2     
   7 N7            -0.7349    -5.0962     6.7910 N.2     
   8 C8             0.4973    -5.1795     7.2032 C.2     
   9 S9             1.5473    -4.8476     5.8239 S.3     
  10 N10            0.9112    -5.4809     8.4952 N.am    
  11 N11            1.0170     2.2788     0.0046 N.2     
  12 C12           -0.0022    -5.7200     9.4570 C.2     
  13 O13           -1.1891    -5.6720     9.1941 O.2     
  14 N14            0.8218     3.5245     0.0127 N.2     
  15 C15           -0.4110     3.9427     0.0263 C.2     
  16 S16           -1.4588     2.5224     0.0218 S.3     
  17 N17           -0.8271     5.2687     0.0369 N.am    
  18 C18            0.0847     6.2612     0.0330 C.2     
  19 O19            1.2720     5.9964     0.0201 O.2     
  20 C20           -0.3555     7.6641     0.0442 C.2     
  21 C21            0.0684    -2.7531     3.1968 C.3     
  22 S22            0.0467    -2.3356     1.4317 S.3     
  23 C23           -1.6364     8.1232     0.0594 C.2     
  24 O24           -1.6393     9.4613     0.0663 O.3     
  25 C25           -0.3840     9.9553     0.0563 C.ar    
  26 C26            0.5006     8.8672     0.0478 C.ar    
  27 C27            0.1283    11.2471     0.0575 C.ar    
  28 C28            1.4921    11.4471     0.0445 C.ar    
  29 C29            2.3647    10.3693     0.0301 C.ar    
  30 C30            1.8752     9.0807     0.0361 C.ar    
  31 C31            0.4357    -6.0388    10.8240 C.2     
  32 C32            1.7158    -6.1301    11.2763 C.2     
  33 O33            1.7166    -6.4386    12.5784 O.3     
  34 C34            0.4605    -6.5667    13.0536 C.ar    
  35 C35           -0.4224    -6.3201    11.9923 C.ar    
  36 C36           -0.0540    -6.8707    14.3083 C.ar    
  37 C37           -1.4180    -6.9327    14.4967 C.ar    
  38 C38           -2.2889    -6.6941    13.4441 C.ar    
  39 C39           -1.7973    -6.3839    12.1942 C.ar    
  40 H40           -0.8875    -0.3767    -0.5057 H       
  41 H41            0.8922    -0.3525    -0.5218 H       
  42 H42            0.9118    -0.1491     1.9494 H       
  43 H43           -0.8680    -0.1733     1.9655 H       
  44 H44            0.9818    -4.6784     2.8810 H       
  45 H45           -0.7979    -4.7026     2.8970 H       
  46 H46            1.8575    -5.5191     8.7048 H       
  47 H47           -1.7738     5.4799     0.0472 H       
  48 H48           -0.8229    -2.3488     3.6768 H       
  49 H49            0.9569    -2.3246     3.6607 H       
  50 H50           -2.5189     7.5006     0.0650 H       
  51 H51           -0.5418    12.0940     0.0682 H       
  52 H52            1.8850    12.4531     0.0450 H       
  53 H53            3.4311    10.5400     0.0197 H       
  54 H54            2.5549     8.2415     0.0250 H       
  55 H55            2.5993    -5.9766    10.6744 H       
  56 H56            0.6147    -7.0587    15.1352 H       
  57 H57           -1.8125    -7.1697    15.4738 H       
  58 H58           -3.3555    -6.7462    13.6054 H       
  59 H59           -2.4756    -6.1982    11.3746 H       
@<TRIPOS>BOND
   1    1    2 1
   2    1   11 2
   3    1   16 1
   4    2    3 1
   5    2   40 1
   6    2   41 1
   7    3   22 1
   8    3   42 1
   9    3   43 1
  10    4    5 1
  11    4   21 1
  12    4   44 1
  13    4   45 1
  14    5    6 2
  15    5    9 1
  16    6    7 1
  17    7    8 2
  18    8    9 1
  19    8   10 1
  20   10   12 am
  21   10   46 1
  22   11   14 1
  23   12   13 2
  24   12   31 1
  25   14   15 2
  26   15   16 1
  27   15   17 1
  28   17   18 am
  29   17   47 1
  30   18   19 2
  31   18   20 1
  32   20   23 2
  33   20   26 1
  34   21   22 1
  35   21   48 1
  36   21   49 1
  37   23   24 1
  38   23   50 1
  39   24   25 1
  40   25   26 ar
  41   25   27 ar
  42   26   30 ar
  43   27   28 ar
  44   27   51 1
  45   28   29 ar
  46   28   52 1
  47   29   30 ar
  48   29   53 1
  49   30   54 1
  50   31   32 2
  51   31   35 1
  52   32   33 1
  53   32   55 1
  54   33   34 1
  55   34   35 ar
  56   34   36 ar
  57   35   39 ar
  58   36   37 ar
  59   36   56 1
  60   37   38 ar
  61   37   57 1
  62   38   39 ar
  63   38   58 1
  64   39   59 1

#	End of record

