#	Name: ASD08170258
#	Creating user name:	WinNT
#	Creation time:	15. 06. 2019 21:17

#	Modifying user name:	WinNT
#	Modification time:	15. 06. 2019 21:17

#	Program:	/corina/corina34_cracker 3.40 0067  02.08.2006

@<TRIPOS>MOLECULE
ASD08170258
  47   48    0    0    0
SMALL
NO_CHARGES


@<TRIPOS>ATOM
   1 N1            -0.0155     1.2947     0.0092 N.2     
   2 C2             0.0021    -0.0041     0.0020 C.2     
   3 S3             1.6320    -0.5310    -0.0164 S.3     
   4 C4             2.1557     1.1534    -0.0123 C.2     
   5 N5             1.0945     1.8960     0.0018 N.2     
   6 C6             7.9570     3.1008     4.2506 C.2     
   7 S7             7.8334     4.5556     5.2404 S.3     
   8 C8             8.6093     3.7258     6.5226 C.2     
   9 N9             8.8778     2.5160     6.1334 N.2     
  10 N10            8.5379     2.1879     4.9626 N.2     
  11 N11            8.9034     4.2592     7.7729 N.am    
  12 C12            9.5194     3.5007     8.7012 C.2     
  13 O13            9.8173     2.3530     8.4462 O.2     
  14 C14           10.5311     3.0175    10.9129 C.3     
  15 C15            9.8381     4.0787    10.0559 C.3     
  16 C16            3.5816     1.6410    -0.0229 C.3     
  17 C17            4.0775     1.7984     1.4160 C.3     
  18 C18            5.5251     2.2933     1.4053 C.3     
  19 C19            6.0210     2.4507     2.8441 C.3     
  20 C20            7.4687     2.9457     2.8334 C.3     
  21 N21           -1.1168    -0.8300     0.0087 N.am    
  22 C22           -2.3521    -0.2911     0.0233 C.2     
  23 O23           -2.4879     0.9140     0.0307 O.2     
  24 C24           -4.8314    -0.3284     0.0471 C.3     
  25 C25           -3.5646    -1.1861     0.0305 C.3     
  26 H26            8.6652     5.1771     7.9768 H       
  27 H27           10.7616     3.4356    11.8928 H       
  28 H28            9.8714     2.1579    11.0307 H       
  29 H29           11.4542     2.7031    10.4258 H       
  30 H30           10.4979     4.9383     9.9382 H       
  31 H31            8.9151     4.3932    10.5431 H       
  32 H32            4.2086     0.9191    -0.5463 H       
  33 H33            3.6328     2.6033    -0.5321 H       
  34 H34            3.4505     2.5202     1.9394 H       
  35 H35            4.0263     0.8360     1.9252 H       
  36 H36            6.1521     1.5715     0.8818 H       
  37 H37            5.5763     3.2557     0.8960 H       
  38 H38            5.3940     3.1726     3.3675 H       
  39 H39            5.9698     1.4884     3.3534 H       
  40 H40            7.5198     3.9081     2.3241 H       
  41 H41            8.0956     2.2239     2.3100 H       
  42 H42           -1.0082    -1.7939     0.0028 H       
  43 H43           -5.7084    -0.9758     0.0523 H       
  44 H44           -4.8357     0.2963     0.9403 H       
  45 H45           -4.8528     0.3052    -0.8396 H       
  46 H46           -3.5603    -1.8108    -0.8627 H       
  47 H47           -3.5432    -1.8197     0.9172 H       
@<TRIPOS>BOND
   1    1    2 2
   2    1    5 1
   3    2    3 1
   4    2   21 1
   5    3    4 1
   6    4    5 2
   7    4   16 1
   8    6    7 1
   9    6   20 1
  10    6   10 2
  11    7    8 1
  12    8    9 2
  13    8   11 1
  14    9   10 1
  15   11   12 am
  16   11   26 1
  17   12   13 2
  18   12   15 1
  19   14   15 1
  20   14   27 1
  21   14   28 1
  22   14   29 1
  23   15   30 1
  24   15   31 1
  25   16   17 1
  26   16   32 1
  27   16   33 1
  28   17   18 1
  29   17   34 1
  30   17   35 1
  31   18   19 1
  32   18   36 1
  33   18   37 1
  34   19   20 1
  35   19   38 1
  36   19   39 1
  37   20   40 1
  38   20   41 1
  39   21   22 am
  40   21   42 1
  41   22   23 2
  42   22   25 1
  43   24   25 1
  44   24   43 1
  45   24   44 1
  46   24   45 1
  47   25   46 1
  48   25   47 1

#	End of record

