#	Name: ASD01510133
#	Creating user name:	WinNT
#	Creation time:	15. 06. 2019 19:21

#	Modifying user name:	WinNT
#	Modification time:	15. 06. 2019 19:21

#	Program:	/corina/corina34_cracker 3.40 0067  02.08.2006

@<TRIPOS>MOLECULE
ASD01510133
  50   52    0    0    0
SMALL
NO_CHARGES


@<TRIPOS>ATOM
   1 Cl1            0.0000     0.0000     0.0000 Cl      
   2 S2            11.7479    11.5007     6.9221 S.3     
   3 S3            10.4596     7.1691     6.8776 S.3     
   4 O4            13.1998     8.1398     7.5600 O.2     
   5 N5            13.8551    10.2586     7.5239 N.am    
   6 N6             9.2520     9.3584     6.6310 N.pl3   
   7 N7            14.4172    15.0845     7.2587 N.ar    
   8 C8            10.5244     8.9391     6.8651 C.2     
   9 C9            11.6437     9.7348     7.0555 C.2     
  10 C10           13.4754    11.5658     7.3188 C.2     
  11 C11            8.2705     8.3989     6.4680 C.ar    
  12 C12           12.9341     9.3196     7.3932 C.2     
  13 C13           15.2361     9.9189     7.8755 C.3     
  14 C14            8.7204     7.0817     6.5667 C.ar    
  15 C15           14.2585    12.6719     7.4018 C.2     
  16 C16           13.6481    14.0041     7.3936 C.ar    
  17 C17            8.9307    10.7857     6.5544 C.3     
  18 C18            6.9038     8.6012     6.2195 C.ar    
  19 C19           15.8661    14.9189     7.1194 C.3     
  20 C20            7.8554     6.0101     6.4261 C.ar    
  21 C21           15.3913     9.9258     9.3976 C.3     
  22 C22           12.2591    14.1349     7.5282 C.ar    
  23 C23           13.9031    16.2984     7.2424 C.ar    
  24 C24            6.0482     7.5331     6.0811 C.ar    
  25 C25            6.5140     6.2338     6.1823 C.ar    
  26 C26           11.7015    15.3974     7.5188 C.ar    
  27 C27           12.5416    16.4952     7.3653 C.ar    
  28 C28           16.2003    14.5476     5.6732 C.3     
  29 H29           15.4758     8.9278     7.4903 H       
  30 H30           15.9133    10.6524     7.4379 H       
  31 H31           15.3313    12.5698     7.4738 H       
  32 H32            9.5585    11.2593     5.7996 H       
  33 H33            7.8820    10.9080     6.2838 H       
  34 H34            9.1128    11.2515     7.5229 H       
  35 H35            6.5195     9.6071     6.1369 H       
  36 H36           16.3652    15.8524     7.3794 H       
  37 H37           16.2071    14.1267     7.7859 H       
  38 H38            8.2289     5.0000     6.5065 H       
  39 H39           15.1516    10.9169     9.7828 H       
  40 H40           14.7141     9.1923     9.8352 H       
  41 H41           16.4189     9.6731     9.6591 H       
  42 H42           11.6344    13.2607     7.6373 H       
  43 H43           14.5561    17.1514     7.1314 H       
  44 H44            5.0000     7.7106     5.8908 H       
  45 H45            5.8346     5.4016     6.0714 H       
  46 H46           10.6345    15.5296     7.6202 H       
  47 H47           12.1331    17.4949     7.3507 H       
  48 H48           15.7750    13.5712     5.4412 H       
  49 H49           15.7814    15.2956     5.0000 H       
  50 H50           17.2825    14.5116     5.5481 H       
@<TRIPOS>BOND
   1    2    9 1
   2    2   10 1
   3    3    8 1
   4    3   14 1
   5    4   12 2
   6    5   10 1
   7    5   12 am
   8    5   13 1
   9    6    8 1
  10    6   11 1
  11    6   17 1
  12    7   16 ar
  13    7   19 1
  14    7   23 ar
  15    8    9 2
  16    9   12 1
  17   10   15 2
  18   11   14 ar
  19   11   18 ar
  20   13   21 1
  21   13   29 1
  22   13   30 1
  23   14   20 ar
  24   15   16 1
  25   15   31 1
  26   16   22 ar
  27   17   32 1
  28   17   33 1
  29   17   34 1
  30   18   24 ar
  31   18   35 1
  32   19   28 1
  33   19   36 1
  34   19   37 1
  35   20   25 ar
  36   20   38 1
  37   21   39 1
  38   21   40 1
  39   21   41 1
  40   22   26 ar
  41   22   42 1
  42   23   27 ar
  43   23   43 1
  44   24   25 ar
  45   24   44 1
  46   25   45 1
  47   26   27 ar
  48   26   46 1
  49   27   47 1
  50   28   48 1
  51   28   49 1
  52   28   50 1

#	End of record

