#	Name: ASD01911944
#	Creating user name:	WinNT
#	Creation time:	15. 06. 2019 19:58

#	Modifying user name:	WinNT
#	Modification time:	15. 06. 2019 19:58

#	Program:	/corina/corina34_cracker 3.40 0067  02.08.2006

@<TRIPOS>MOLECULE
ASD01911944
  60   62    0    0    0
SMALL
NO_CHARGES


@<TRIPOS>ATOM
   1 C1             0.1123     1.3260     0.7597 C.ar    
   2 C2             0.1045    -0.0516     0.5815 C.ar    
   3 N3            -1.0907    -0.7654     0.6953 N.am    
   4 C4            -1.2459    -2.0489     0.0063 C.3     
   5 C5            -0.6748    -3.1504     0.8616 C.2     
   6 O6            -0.1862    -2.8891     1.9405 O.2     
   7 N7            -0.7069    -4.4260     0.4276 N.am    
   8 C8            -0.1552    -5.5161     1.2464 C.3     
   9 C9            -1.2121    -6.6194     1.3640 C.3     
  10 N10           -1.6544    -7.0147     0.0201 N.3     
  11 C11           -2.3067    -5.8977    -0.6762 C.3     
  12 C12           -1.3001    -4.7655    -0.8747 C.3     
  13 C13           -2.4878    -8.1183     0.0768 C.ar    
  14 C14           -2.4273    -9.1014    -0.9257 C.ar    
  15 N15           -3.2332   -10.1579    -0.8609 N.ar    
  16 C16           -4.0827   -10.2784     0.1400 C.ar    
  17 C17           -4.1423    -9.3084     1.1290 C.ar    
  18 N18           -3.3445    -8.2564     1.0812 N.ar    
  19 C19            1.2957     2.0287     0.6459 C.ar    
  20 C20            2.4721     1.3625     0.3550 C.ar    
  21 C21            2.4678    -0.0088     0.1766 C.ar    
  22 C22            1.2879    -0.7177     0.2894 C.ar    
  23 C23            3.7615     2.1326     0.2317 C.3     
  24 C24            4.4424     2.2096     1.5997 C.3     
  25 C25            5.7516     2.9915     1.4744 C.3     
  26 C26            6.4325     3.0684     2.8424 C.3     
  27 S27           -2.3323    -0.1608     1.6092 S.o2    
  28 C28           -3.3041     0.8384     0.4481 C.3     
  29 O29           -3.0640    -1.3107     2.0110 O.2     
  30 O30           -1.6905     0.6706     2.5664 O.2     
  31 C31           -1.5034    -8.9663    -2.0114 C.1     
  32 N32           -0.7705    -8.8592    -2.8727 N.1     
  33 H33           -0.8069     1.8475     0.9825 H       
  34 H34           -2.3040    -2.2395    -0.1728 H       
  35 H35           -0.7163    -2.0165    -0.9458 H       
  36 H36            0.7397    -5.9157     0.7692 H       
  37 H37            0.0928    -5.1393     2.2387 H       
  38 H38           -0.7825    -7.4818     1.8738 H       
  39 H39           -2.0643    -6.2476     1.9328 H       
  40 H40           -2.6709    -6.2366    -1.6460 H       
  41 H41           -3.1437    -5.5358    -0.0790 H       
  42 H42           -1.8071    -3.8929    -1.2866 H       
  43 H43           -0.5131    -5.0905    -1.5553 H       
  44 H44           -4.7359   -11.1370     0.1898 H       
  45 H45           -4.8414    -9.4157     1.9451 H       
  46 H46            1.3024     3.0998     0.7840 H       
  47 H47            3.3882    -0.5260    -0.0508 H       
  48 H48            1.2853    -1.7887     0.1499 H       
  49 H49            4.4205     1.6272    -0.4743 H       
  50 H50            3.5501     3.1403    -0.1261 H       
  51 H51            3.7835     2.7150     2.3056 H       
  52 H52            4.6539     1.2019     1.9575 H       
  53 H53            6.4106     2.4860     0.7685 H       
  54 H54            5.5401     3.9991     1.1167 H       
  55 H55            5.7735     3.5738     3.5484 H       
  56 H56            6.6439     2.0607     3.2002 H       
  57 H57            7.3652     3.6254     2.7532 H       
  58 H58           -3.5401     0.2433    -0.4341 H       
  59 H59           -4.2287     1.1576     0.9290 H       
  60 H60           -2.7274     1.7145     0.1517 H       
@<TRIPOS>BOND
   1    1    2 ar
   2    1   19 ar
   3    1   33 1
   4    2    3 1
   5    2   22 ar
   6    3    4 1
   7    3   27 am
   8    4    5 1
   9    4   34 1
  10    4   35 1
  11    5    6 2
  12    5    7 am
  13    7    8 1
  14    7   12 1
  15    8    9 1
  16    8   36 1
  17    8   37 1
  18    9   10 1
  19    9   38 1
  20    9   39 1
  21   10   11 1
  22   10   13 1
  23   11   12 1
  24   11   40 1
  25   11   41 1
  26   12   42 1
  27   12   43 1
  28   13   14 ar
  29   13   18 ar
  30   14   15 ar
  31   14   31 1
  32   15   16 ar
  33   16   17 ar
  34   16   44 1
  35   17   18 ar
  36   17   45 1
  37   19   20 ar
  38   19   46 1
  39   20   21 ar
  40   20   23 1
  41   21   22 ar
  42   21   47 1
  43   22   48 1
  44   23   24 1
  45   23   49 1
  46   23   50 1
  47   24   25 1
  48   24   51 1
  49   24   52 1
  50   25   26 1
  51   25   53 1
  52   25   54 1
  53   26   55 1
  54   26   56 1
  55   26   57 1
  56   27   28 1
  57   27   29 2
  58   27   30 2
  59   28   58 1
  60   28   59 1
  61   28   60 1
  62   31   32 3

#	End of record

