#	Name: ASD01910632
#	Creating user name:	WinNT
#	Creation time:	15. 06. 2019 19:56

#	Modifying user name:	WinNT
#	Modification time:	15. 06. 2019 19:56

#	Program:	/corina/corina34_cracker 3.40 0067  02.08.2006

@<TRIPOS>MOLECULE
ASD01910632
  43   46    0    0    0
SMALL
NO_CHARGES


@<TRIPOS>ATOM
   1 C1            -0.6625     1.7786    -1.9695 C.ar    
   2 N2            -0.7307     0.4888    -1.7064 N.ar    
   3 C3             0.2663    -0.1649    -1.1419 C.ar    
   4 C4             1.4357     0.4820    -0.7989 C.ar    
   5 C5             1.5553     1.8519    -1.0586 C.ar    
   6 C6             0.4726     2.5071    -1.6598 C.ar    
   7 C7             2.7894     2.5873    -0.7080 C.2     
   8 N8             3.0233     3.8728    -0.9008 N.2     
   9 C9             4.2616     4.0878    -0.4302 C.2     
  10 N10            4.7153     2.9540     0.0166 N.2     
  11 O11            3.8871     2.0796    -0.1269 O.3     
  12 C12            4.9940     5.4048    -0.4215 C.3     
  13 C13            5.3375     5.7888     1.0196 C.3     
  14 C14            6.0523     7.1420     1.0322 C.3     
  15 C15            7.3570     7.0332     0.2368 C.3     
  16 N16            7.0505     6.5252    -1.1073 N.am    
  17 C17            6.2868     5.2763    -1.2334 C.3     
  18 C18            7.4620     7.1921    -2.2039 C.2     
  19 C19            8.1558     8.4886    -2.0628 C.ar    
  20 O20            7.2623     6.7266    -3.3090 O.2     
  21 C21            9.2408     8.6114    -1.1929 C.ar    
  22 C22            9.8856     9.8234    -1.0641 C.ar    
  23 C23            9.4587    10.9199    -1.7958 C.ar    
  24 C24            8.3798    10.8048    -2.6626 C.ar    
  25 C25            7.7320     9.5943    -2.8035 C.ar    
  26 F26           10.0940    12.1051    -1.6653 F       
  27 F27            0.5356     3.8287    -1.9328 F       
  28 F28            7.9677    11.8774    -3.3732 F       
  29 H29           -1.5017     2.2723    -2.4369 H       
  30 H30            0.1655    -1.2220    -0.9450 H       
  31 H31            2.2468    -0.0609    -0.3364 H       
  32 H32            4.3620     6.1756    -0.8626 H       
  33 H33            4.4209     5.8569     1.6056 H       
  34 H34            5.9893     5.0298     1.4521 H       
  35 H35            5.4107     7.8966     0.5773 H       
  36 H36            6.2758     7.4258     2.0606 H       
  37 H37            7.8206     8.0166     0.1588 H       
  38 H38            8.0362     6.3458     0.7411 H       
  39 H39            6.8786     4.4457    -0.8490 H       
  40 H40            6.0441     5.1006    -2.2814 H       
  41 H41            9.5746     7.7580    -0.6212 H       
  42 H42           10.7250     9.9184    -0.3912 H       
  43 H43            6.8931     9.5046    -3.4778 H       
@<TRIPOS>BOND
   1    1    2 ar
   2    1    6 ar
   3    1   29 1
   4    2    3 ar
   5    3    4 ar
   6    3   30 1
   7    4    5 ar
   8    4   31 1
   9    5    6 ar
  10    5    7 1
  11    6   27 1
  12    7    8 2
  13    7   11 1
  14    8    9 1
  15    9   10 2
  16    9   12 1
  17   10   11 1
  18   12   13 1
  19   12   17 1
  20   12   32 1
  21   13   14 1
  22   13   33 1
  23   13   34 1
  24   14   15 1
  25   14   35 1
  26   14   36 1
  27   15   16 1
  28   15   37 1
  29   15   38 1
  30   16   17 1
  31   16   18 am
  32   17   39 1
  33   17   40 1
  34   18   19 1
  35   18   20 2
  36   19   21 ar
  37   19   25 ar
  38   21   22 ar
  39   21   41 1
  40   22   23 ar
  41   22   42 1
  42   23   24 ar
  43   23   26 1
  44   24   25 ar
  45   24   28 1
  46   25   43 1

#	End of record

