#	Name: ASD03540060
#	Creating user name:	WinNT
#	Creation time:	15. 06. 2019 20:42

#	Modifying user name:	WinNT
#	Modification time:	15. 06. 2019 20:42

#	Program:	/corina/corina34_cracker 3.40 0067  02.08.2006

@<TRIPOS>MOLECULE
ASD03540060
  63   67    0    0    0
SMALL
NO_CHARGES


@<TRIPOS>ATOM
   1 C1             0.1671     1.3434    -0.0089 C.2     
   2 N2             0.2779    -0.0141    -0.0287 N.am    
   3 C3             1.5430    -0.5488    -0.0701 C.2     
   4 C4             2.6596     0.2554    -0.0914 C.2     
   5 C5             2.4904     1.6460    -0.0700 C.2     
   6 N6             1.2395     2.1447    -0.0285 N.am    
   7 S7             1.3370    -2.3055    -0.0855 S.3     
   8 C8            -0.7367    -0.9264    -0.0116 C.2     
   9 C9            -0.4335    -2.2318    -0.0356 C.2     
  10 C10           -1.3704    -3.3624    -0.0233 C.2     
  11 O11           -2.5695    -3.1586     0.0119 O.2     
  12 N12           -0.9022    -4.6259    -0.0509 N.am    
  13 C13           -1.8369    -5.7539    -0.0385 C.3     
  14 C14           -1.0641    -7.0472    -0.0749 C.ar    
  15 C15           -0.6772    -7.6539     1.1055 C.ar    
  16 C16            0.0312    -8.8401     1.0735 C.ar    
  17 C17            0.3533    -9.4208    -0.1415 C.ar    
  18 C18           -0.0347    -8.8122    -1.3230 C.ar    
  19 C19           -0.7476    -7.6288    -1.2884 C.ar    
  20 F20            1.0462   -10.5802    -0.1740 F       
  21 O21            3.4567     2.3907    -0.0877 O.2     
  22 O22           -0.9406     1.8431     0.0225 O.2     
  23 C23            1.0483     3.5970    -0.0058 C.3     
  24 C24            1.0215     4.0779     1.4221 C.ar    
  25 C25            2.1985     4.4547     2.0442 C.ar    
  26 C26            2.1808     4.8963     3.3511 C.ar    
  27 C27            0.9721     4.9624     4.0458 C.ar    
  28 C28           -0.2117     4.5808     3.4124 C.ar    
  29 C29           -0.1808     4.1461     2.1035 C.ar    
  30 C30            0.9458     5.4342     5.4468 C.2     
  31 O31            0.0335     6.1379     5.8341 O.2     
  32 N32            1.9334     5.0840     6.2944 N.am    
  33 C33            1.9964     5.6404     7.6552 C.3     
  34 C34            2.1568     4.4806     8.6448 C.3     
  35 O35            3.2596     3.6658     8.2403 O.3     
  36 C36            3.0926     3.0472     6.9623 C.3     
  37 C37            2.9770     4.1293     5.8885 C.3     
  38 C38            4.0395    -0.3488    -0.1363 C.3     
  39 H39           -1.7663    -0.6022     0.0212 H       
  40 H40            0.0537    -4.7884    -0.0789 H       
  41 H41           -2.4398    -5.7163     0.8688 H       
  42 H42           -2.4885    -5.6954    -0.9104 H       
  43 H43           -0.9282    -7.2006     2.0531 H       
  44 H44            0.3337    -9.3138     1.9957 H       
  45 H45            0.2160    -9.2643    -2.2713 H       
  46 H46           -1.0540    -7.1560    -2.2098 H       
  47 H47            1.8689     4.0799    -0.5365 H       
  48 H48            0.1048     3.8469    -0.4911 H       
  49 H49            3.1332     4.4027     1.5056 H       
  50 H50            3.1003     5.1898     3.8356 H       
  51 H51           -1.1503     4.6296     3.9445 H       
  52 H52           -1.0966     3.8543     1.6108 H       
  53 H53            2.8496     6.3137     7.7374 H       
  54 H54            1.0769     6.1839     7.8726 H       
  55 H55            2.3436     4.8769     9.6429 H       
  56 H56            1.2460     3.8818     8.6546 H       
  57 H57            3.9527     2.4122     6.7500 H       
  58 H58            2.1852     2.4432     6.9660 H       
  59 H59            2.7065     3.6726     4.9364 H       
  60 H60            3.9306     4.6478     5.7897 H       
  61 H61            4.3439    -0.4825    -1.1744 H       
  62 H62            4.7432     0.3147     0.3662 H       
  63 H63            4.0292    -1.3157     0.3667 H       
@<TRIPOS>BOND
   1    1    2 am
   2    1    6 am
   3    1   22 2
   4    2    3 1
   5    2    8 1
   6    3    4 2
   7    3    7 1
   8    4    5 1
   9    4   38 1
  10    5    6 am
  11    5   21 2
  12    6   23 1
  13    7    9 1
  14    8    9 2
  15    8   39 1
  16    9   10 1
  17   10   11 2
  18   10   12 am
  19   12   13 1
  20   12   40 1
  21   13   14 1
  22   13   41 1
  23   13   42 1
  24   14   15 ar
  25   14   19 ar
  26   15   16 ar
  27   15   43 1
  28   16   17 ar
  29   16   44 1
  30   17   18 ar
  31   17   20 1
  32   18   19 ar
  33   18   45 1
  34   19   46 1
  35   23   24 1
  36   23   47 1
  37   23   48 1
  38   24   25 ar
  39   24   29 ar
  40   25   26 ar
  41   25   49 1
  42   26   27 ar
  43   26   50 1
  44   27   28 ar
  45   27   30 1
  46   28   29 ar
  47   28   51 1
  48   29   52 1
  49   30   31 2
  50   30   32 am
  51   32   33 1
  52   32   37 1
  53   33   34 1
  54   33   53 1
  55   33   54 1
  56   34   35 1
  57   34   55 1
  58   34   56 1
  59   35   36 1
  60   36   37 1
  61   36   57 1
  62   36   58 1
  63   37   59 1
  64   37   60 1
  65   38   61 1
  66   38   62 1
  67   38   63 1

#	End of record

