#	Name: ASD03240137
#	Creating user name:	WinNT
#	Creation time:	15. 06. 2019 20:34

#	Modifying user name:	WinNT
#	Modification time:	15. 06. 2019 20:34

#	Program:	/corina/corina34_cracker 3.40 0067  02.08.2006

@<TRIPOS>MOLECULE
ASD03240137
  86   93    0    0    0
SMALL
NO_CHARGES


@<TRIPOS>ATOM
   1 C1            -0.0171     1.4134     0.0098 C.ar    
   2 C2             0.0021    -0.0041     0.0020 C.ar    
   3 C3             1.1958     2.1211     0.0020 C.ar    
   4 C4             2.3733     1.3907    -0.0132 C.ar    
   5 C5             2.3139    -0.0222    -0.0203 C.ar    
   6 N6             1.1608    -0.6607    -0.0127 N.ar    
   7 C7             3.5742    -0.8011    -0.0371 C.ar    
   8 C8             3.6834     2.0842    -0.0224 C.ar    
   9 C9             3.9303     3.1013    -0.9434 C.ar    
  10 C10            5.1518     3.7433    -0.9474 C.ar    
  11 C11            6.1306     3.3792    -0.0401 C.ar    
  12 C12            5.8913     2.3707     0.8761 C.ar    
  13 C13            4.6714     1.7258     0.8935 C.ar    
  14 C14            3.6571    -2.0133     0.6473 C.ar    
  15 C15            4.8334    -2.7344     0.6276 C.ar    
  16 C16            5.9290    -2.2571    -0.0692 C.ar    
  17 C17            5.8528    -1.0553    -0.7501 C.ar    
  18 C18            4.6803    -0.3278    -0.7421 C.ar    
  19 C19            7.2109    -3.0494    -0.0864 C.3     
  20 C20           -1.2370    -0.6890     0.0107 C.ar    
  21 N21           -2.3644    -0.0059     0.0256 N.ar    
  22 C22           -2.3996     1.3200     0.0331 C.ar    
  23 C23           -1.2629     2.0688     0.0311 C.ar    
  24 N24            7.1982    -3.9768    -1.2255 N.3     
  25 C25            8.5169    -4.5939    -1.4165 C.3     
  26 C26            8.5066    -5.4380    -2.6929 C.3     
  27 C27            7.4287    -6.5191    -2.5754 C.3     
  28 C28            6.0727    -5.8520    -2.3288 C.3     
  29 C29            6.1535    -4.9959    -1.0628 C.3     
  30 C30            7.3730    -7.3158    -3.8534 C.2     
  31 N31            6.6752    -6.9928    -4.9678 N.pl3   
  32 C32            6.9184    -7.9960    -5.8667 C.2     
  33 N33            7.7242    -8.8515    -5.2777 N.2     
  34 N34            7.9939    -8.4411    -4.0895 N.2     
  35 C35            6.3770    -8.0983    -7.2395 C.ar    
  36 C36            6.7198    -9.1884    -8.0389 C.ar    
  37 C37            6.2047    -9.2702    -9.3210 C.ar    
  38 C38            5.3633    -8.2591    -9.7628 C.ar    
  39 C39            5.0648    -7.2061    -8.9167 C.ar    
  40 N40            5.5639    -7.1542    -7.6992 N.ar    
  41 N41           -1.2646    -2.0738     0.0032 N.3     
  42 C42           -2.6467    -2.5731     0.0144 C.3     
  43 C43           -2.6351    -4.1010    -0.0747 C.3     
  44 N44           -1.8710    -4.6491     1.0546 N.3     
  45 C45           -0.4889    -4.1498     1.0434 C.3     
  46 C46           -0.5005    -2.6220     1.1324 C.3     
  47 C47           -1.9002    -6.1178     1.0466 C.3     
  48 H48            1.2104     3.2009     0.0074 H       
  49 H49            3.1671     3.3859    -1.6527 H       
  50 H50            5.3442     4.5314    -1.6603 H       
  51 H51            7.0853     3.8839    -0.0473 H       
  52 H52            6.6592     2.0906     1.5820 H       
  53 H53            4.4857     0.9386     1.6092 H       
  54 H54            2.8026    -2.3867     1.1920 H       
  55 H55            4.8990    -3.6732     1.1576 H       
  56 H56            6.7115    -0.6876    -1.2921 H       
  57 H57            4.6218     0.6102    -1.2743 H       
  58 H58            8.0572    -2.3691    -0.1811 H       
  59 H59            7.3011    -3.6146     0.8413 H       
  60 H60           -3.3571     1.8194     0.0449 H       
  61 H61           -1.3159     3.1475     0.0373 H       
  62 H62            9.2737    -3.8142    -1.5028 H       
  63 H63            8.7472    -5.2303    -0.5621 H       
  64 H64            8.2900    -4.7997    -3.5496 H       
  65 H65            9.4808    -5.9084    -2.8260 H       
  66 H66            7.6659    -7.1810    -1.7425 H       
  67 H67            5.8177    -5.2203    -3.1796 H       
  68 H68            5.3079    -6.6183    -2.2016 H       
  69 H69            6.3949    -5.6305    -0.2101 H       
  70 H70            5.1938    -4.5082    -0.8923 H       
  71 H71            6.1169    -6.2109    -5.1016 H       
  72 H72            7.3781    -9.9577    -7.6630 H       
  73 H73            6.4525   -10.1022    -9.9634 H       
  74 H74            4.9455    -8.2938   -10.7581 H       
  75 H75            4.4101    -6.4178    -9.2580 H       
  76 H76           -3.1366    -2.2664     0.9385 H       
  77 H77           -3.1883    -2.1632    -0.8381 H       
  78 H78           -3.6581    -4.4752    -0.0373 H       
  79 H79           -2.1695    -4.4071    -1.0115 H       
  80 H80            0.0528    -4.5597     1.8958 H       
  81 H81            0.0011    -4.4565     0.1192 H       
  82 H82            0.5226    -2.2477     1.0951 H       
  83 H83           -0.9660    -2.3159     2.0693 H       
  84 H84           -1.4632    -6.4849     0.1179 H       
  85 H85           -1.3273    -6.4973     1.8926 H       
  86 H86           -2.9319    -6.4611     1.1232 H       
@<TRIPOS>BOND
   1    1    2 ar
   2    1    3 ar
   3    1   23 ar
   4    2   20 ar
   5    2    6 ar
   6    3    4 ar
   7    3   48 1
   8    4    5 ar
   9    4    8 1
  10    5    6 ar
  11    5    7 1
  12    7   14 ar
  13    7   18 ar
  14    8    9 ar
  15    8   13 ar
  16    9   10 ar
  17    9   49 1
  18   10   11 ar
  19   10   50 1
  20   11   12 ar
  21   11   51 1
  22   12   13 ar
  23   12   52 1
  24   13   53 1
  25   14   15 ar
  26   14   54 1
  27   15   16 ar
  28   15   55 1
  29   16   17 ar
  30   16   19 1
  31   17   18 ar
  32   17   56 1
  33   18   57 1
  34   19   24 1
  35   19   58 1
  36   19   59 1
  37   20   21 ar
  38   20   41 1
  39   21   22 ar
  40   22   23 ar
  41   22   60 1
  42   23   61 1
  43   24   25 1
  44   24   29 1
  45   25   26 1
  46   25   62 1
  47   25   63 1
  48   26   27 1
  49   26   64 1
  50   26   65 1
  51   27   28 1
  52   27   30 1
  53   27   66 1
  54   28   29 1
  55   28   67 1
  56   28   68 1
  57   29   69 1
  58   29   70 1
  59   30   31 1
  60   30   34 2
  61   31   32 1
  62   31   71 1
  63   32   33 2
  64   32   35 1
  65   33   34 1
  66   35   36 ar
  67   35   40 ar
  68   36   37 ar
  69   36   72 1
  70   37   38 ar
  71   37   73 1
  72   38   39 ar
  73   38   74 1
  74   39   40 ar
  75   39   75 1
  76   41   42 1
  77   41   46 1
  78   42   43 1
  79   42   76 1
  80   42   77 1
  81   43   44 1
  82   43   78 1
  83   43   79 1
  84   44   45 1
  85   44   47 1
  86   45   46 1
  87   45   80 1
  88   45   81 1
  89   46   82 1
  90   46   83 1
  91   47   84 1
  92   47   85 1
  93   47   86 1

#	End of record

