#	Name: ASD01811530
#	Creating user name:	WinNT
#	Creation time:	15. 06. 2019 19:26

#	Modifying user name:	WinNT
#	Modification time:	15. 06. 2019 19:26

#	Program:	/corina/corina34_cracker 3.40 0067  02.08.2006

@<TRIPOS>MOLECULE
ASD01811530
  37   39    0    0    0
SMALL
NO_CHARGES


@<TRIPOS>ATOM
   1 C1            -0.1689     1.4571    -0.2403 C.2     
   2 C2            -0.0705    -0.0121    -0.1190 C.ar    
   3 C3             1.1795    -0.6352    -0.1490 C.ar    
   4 C4             1.2712    -2.0075    -0.0362 C.ar    
   5 C5             0.1294    -2.7726     0.1068 C.ar    
   6 C6            -1.1235    -2.1627     0.1381 C.ar    
   7 C7            -1.2245    -0.7800     0.0313 C.ar    
   8 O8             0.8397     2.1336    -0.2628 O.2     
   9 O9            -1.3771     2.0460    -0.3314 O.3     
  10 N10           -4.2705    -3.7398     0.9597 N.2     
  11 N11           -3.7998    -4.5097     0.0443 N.pl3   
  12 N12           -2.6587    -4.0880    -0.3721 N.2     
  13 C13           -2.3484    -2.9880     0.2913 C.2     
  14 C14           -3.4212    -2.7622     1.1730 C.2     
  15 C15            2.4293     0.1922    -0.3051 C.3     
  16 C16            0.2392    -4.2706     0.2287 C.3     
  17 C17            0.8241    -4.9492    -1.0212 C.3     
  18 C18            1.6016    -5.8668    -0.0629 C.3     
  19 C19            1.4999    -4.7372     0.9756 C.3     
  20 C20           -1.3979     3.4931    -0.4480 C.3     
  21 H21            2.2393    -2.4855    -0.0602 H       
  22 H22           -2.1931    -0.3032     0.0600 H       
  23 H23           -4.2464    -5.3040    -0.2883 H       
  24 H24           -3.5245    -1.9519     1.8794 H       
  25 H25            2.7344     0.5768     0.6681 H       
  26 H26            3.2260    -0.4272    -0.7171 H       
  27 H27            2.2315     1.0255    -0.9794 H       
  28 H28           -0.6795    -4.7345     0.5878 H       
  29 H29            0.0808    -5.4740    -1.6214 H       
  30 H30            1.4634    -4.2952    -1.6143 H       
  31 H31            1.0561    -6.7680     0.2174 H       
  32 H32            2.6220    -6.0719    -0.3864 H       
  33 H33            2.3239    -4.0252     0.9284 H       
  34 H34            1.3021    -5.0908     1.9875 H       
  35 H35           -0.8574     3.7931    -1.3458 H       
  36 H36           -2.4300     3.8376    -0.5132 H       
  37 H37           -0.9219     3.9351     0.4273 H       
@<TRIPOS>BOND
   1    1    2 1
   2    1    8 2
   3    1    9 1
   4    2    3 ar
   5    2    7 ar
   6    3    4 ar
   7    3   15 1
   8    4    5 ar
   9    4   21 1
  10    5    6 ar
  11    5   16 1
  12    6    7 ar
  13    6   13 1
  14    7   22 1
  15    9   20 1
  16   10   11 1
  17   10   14 2
  18   11   12 1
  19   11   23 1
  20   12   13 2
  21   13   14 1
  22   14   24 1
  23   15   25 1
  24   15   26 1
  25   15   27 1
  26   16   17 1
  27   16   19 1
  28   16   28 1
  29   17   18 1
  30   17   29 1
  31   17   30 1
  32   18   19 1
  33   18   31 1
  34   18   32 1
  35   19   33 1
  36   19   34 1
  37   20   35 1
  38   20   36 1
  39   20   37 1

#	End of record

