#	Name: ASD01320075
#	Creating user name:	WinNT
#	Creation time:	15. 06. 2019 19:15

#	Modifying user name:	WinNT
#	Modification time:	15. 06. 2019 19:15

#	Program:	/corina/corina34_cracker 3.40 0067  02.08.2006

@<TRIPOS>MOLECULE
ASD01320075
  43   44    0    0    0
SMALL
NO_CHARGES


@<TRIPOS>ATOM
   1 C1            -0.0162     1.3436     0.0042 C.2     
   2 C2             3.4793     2.0135    -0.0201 C.2     
   3 C3             4.7660     1.2937    -0.0305 C.ar    
   4 C4             5.9677     2.0067    -0.0382 C.ar    
   5 C5             7.1681     1.3297    -0.0474 C.ar    
   6 C6             7.1845    -0.0591    -0.0496 C.ar    
   7 C7             5.9925    -0.7719    -0.0425 C.ar    
   8 C8             4.7875    -0.1034    -0.0269 C.ar    
   9 N9             0.0021    -0.0041     0.0020 N.am    
  10 N10            1.1417     2.0333    -0.0032 N.am    
  11 N11            2.3643     1.3493    -0.0131 N.2     
  12 O12            8.3701    -0.7223    -0.0591 O.3     
  13 S13           -1.5104     2.1793     0.0091 S.2     
  14 C14           -1.2565    -0.7538     0.0100 C.3     
  15 C15           -1.1383    -1.9599    -0.9254 C.3     
  16 O16           -0.8048    -1.5130    -2.2411 O.3     
  17 C17           -0.0387    -2.8921    -0.4074 C.3     
  18 O18            1.2173    -2.2111    -0.4346 O.3     
  19 C19           -0.3682    -3.3022     1.0313 C.3     
  20 O20            0.6874    -4.1137     1.5501 O.3     
  21 C21           -0.5161    -2.0442     1.8911 C.3     
  22 O22           -1.5329    -1.2069     1.3368 O.3     
  23 C23           -0.9043    -2.4430     3.3163 C.3     
  24 O24           -0.9288    -1.2801     4.1464 O.3     
  25 H25            3.4646     3.0934    -0.0184 H       
  26 H26            5.9559     3.0866    -0.0372 H       
  27 H27            8.0974     1.8800    -0.0533 H       
  28 H28            6.0100    -1.8518    -0.0449 H       
  29 H29            3.8611    -0.6585    -0.0169 H       
  30 H30            0.8486    -0.4776    -0.0048 H       
  31 H31            1.1285     3.0032    -0.0016 H       
  32 H32            8.7198    -0.9156     0.8215 H       
  33 H33           -2.0664    -0.1082    -0.3299 H       
  34 H34           -2.0878    -2.4946    -0.9521 H       
  35 H35           -1.4566    -0.9138    -2.6299 H       
  36 H36            0.0139    -3.7796    -1.0379 H       
  37 H37            1.4858    -1.9162    -1.3155 H       
  38 H38           -1.3011    -3.8656     1.0448 H       
  39 H39            0.8404    -4.9271     1.0499 H       
  40 H40            0.4300    -1.5033     1.9097 H       
  41 H41           -1.8918    -2.9045     3.3082 H       
  42 H42           -0.1748    -3.1527     3.7064 H       
  43 H43           -1.1679    -1.4584     5.0662 H       
@<TRIPOS>BOND
   1    1    9 am
   2    1   10 am
   3    1   13 2
   4    2    3 1
   5    2   11 2
   6    2   25 1
   7    3    4 ar
   8    3    8 ar
   9    4    5 ar
  10    4   26 1
  11    5    6 ar
  12    5   27 1
  13    6    7 ar
  14    6   12 1
  15    7    8 ar
  16    7   28 1
  17    8   29 1
  18    9   14 1
  19    9   30 1
  20   10   11 1
  21   10   31 1
  22   12   32 1
  23   14   15 1
  24   14   22 1
  25   14   33 1
  26   15   16 1
  27   15   17 1
  28   15   34 1
  29   16   35 1
  30   17   18 1
  31   17   19 1
  32   17   36 1
  33   18   37 1
  34   19   20 1
  35   19   21 1
  36   19   38 1
  37   20   39 1
  38   21   22 1
  39   21   23 1
  40   21   40 1
  41   23   24 1
  42   23   41 1
  43   23   42 1
  44   24   43 1

#	End of record

