#	Name: ASD00570012
#	Creating user name:	WinNT
#	Creation time:	15. 06. 2019 18:36

#	Modifying user name:	WinNT
#	Modification time:	15. 06. 2019 18:36

#	Program:	/corina/corina34_cracker 3.40 0067  02.08.2006

@<TRIPOS>MOLECULE
ASD00570012
  67   70    0    0    0
SMALL
NO_CHARGES


@<TRIPOS>ATOM
   1 C1             7.0109    -2.1891    -6.2509 C.ar    
   2 C2             6.6636    -3.3013    -5.4948 C.ar    
   3 C3             6.4737    -3.1987    -4.1355 C.ar    
   4 C4             6.6316    -1.9610    -3.5059 C.ar    
   5 C5             6.9851    -0.8311    -4.2787 C.ar    
   6 C6             7.1726    -0.9582    -5.6541 C.ar    
   7 N7             6.4534    -1.8179    -2.1716 N.2     
   8 C8             6.6009    -0.6577    -1.5810 C.2     
   9 N9             6.9408     0.4834    -2.2539 N.am    
  10 C10            7.1441     0.4575    -3.5914 C.2     
  11 C11            7.0800     1.6883    -1.5530 C.ar    
  12 C12            5.9606     2.3234    -1.0329 C.ar    
  13 C13            6.1014     3.5125    -0.3416 C.ar    
  14 C14            7.3565     4.0689    -0.1688 C.ar    
  15 C15            8.4728     3.4377    -0.6862 C.ar    
  16 C16            8.3387     2.2466    -1.3722 C.ar    
  17 Cl17           4.7026     4.3082     0.3095 Cl      
  18 S18            6.3493    -0.5632     0.1604 S.3     
  19 C19            5.7797    -2.2497     0.4877 C.3     
  20 C20            6.9164    -3.2150     0.2701 C.2     
  21 C21            5.2937    -2.3520     1.9348 C.3     
  22 C22            4.0558    -1.4722     2.1205 C.3     
  23 C23            3.6339    -1.4894     3.5911 C.3     
  24 C24            2.3960    -0.6095     3.7768 C.3     
  25 N25            6.6584    -4.5001    -0.0435 N.am    
  26 C26            7.7559    -5.4529    -0.2587 C.3     
  27 C27            7.5672    -6.1224    -1.6235 C.3     
  28 C28            6.1712    -6.7456    -1.6929 C.3     
  29 C29            5.1135    -5.6499    -1.5420 C.3     
  30 C30            5.2743    -4.9763    -0.1707 C.3     
  31 O31            8.0632    -2.8353     0.3771 O.2     
  32 C32            5.9943    -7.4346    -3.0215 C.2     
  33 N33            4.8344    -8.0582    -3.3081 N.am    
  34 O34            6.8958    -7.4278    -3.8328 O.2     
  35 O35            7.4470     1.4655    -4.2030 O.2     
  36 C36            6.4922    -4.6370    -6.1713 C.3     
  37 H37            7.1599    -2.2913    -7.3157 H       
  38 H38            6.2035    -4.0705    -3.5582 H       
  39 H39            7.4427    -0.0974    -6.2479 H       
  40 H40            4.9810     1.8895    -1.1683 H       
  41 H41            7.4645     4.9982     0.3708 H       
  42 H42            9.4511     3.8745    -0.5501 H       
  43 H43            9.2112     1.7542    -1.7756 H       
  44 H44            4.9608    -2.4943    -0.1888 H       
  45 H45            5.0404    -3.3879     2.1607 H       
  46 H46            6.0826    -2.0159     2.6077 H       
  47 H47            4.2883    -0.4502     1.8212 H       
  48 H48            3.2422    -1.8551     1.5046 H       
  49 H49            3.4015    -2.5114     3.8905 H       
  50 H50            4.4475    -1.1065     4.2071 H       
  51 H51            2.6284     0.4124     3.4774 H       
  52 H52            1.5824    -0.9925     3.1608 H       
  53 H53            2.0954    -0.6218     4.8245 H       
  54 H54            8.7085    -4.9234    -0.2400 H       
  55 H55            7.7412    -6.2104     0.5250 H       
  56 H56            7.6725    -5.3772    -2.4120 H       
  57 H57            8.3197    -6.9001    -1.7545 H       
  58 H58            6.0578    -7.4729    -0.8890 H       
  59 H59            5.2419    -4.9091    -2.3312 H       
  60 H60            4.1195    -6.0912    -1.6149 H       
  61 H61            5.0561    -5.6964     0.6179 H       
  62 H62            4.5901    -4.1312    -0.0962 H       
  63 H63            4.1134    -8.0635    -2.6592 H       
  64 H64            4.7206    -8.5016    -4.1633 H       
  65 H65            7.4459    -5.1648    -6.1802 H       
  66 H66            5.7550    -5.2277    -5.6276 H       
  67 H67            6.1518    -4.4845    -7.1955 H       
@<TRIPOS>BOND
   1    1    2 ar
   2    1    6 ar
   3    1   37 1
   4    2    3 ar
   5    2   36 1
   6    3    4 ar
   7    3   38 1
   8    4    5 ar
   9    4    7 1
  10    5    6 ar
  11    5   10 1
  12    6   39 1
  13    7    8 2
  14    8    9 1
  15    8   18 1
  16    9   10 am
  17    9   11 1
  18   10   35 2
  19   11   12 ar
  20   11   16 ar
  21   12   13 ar
  22   12   40 1
  23   13   14 ar
  24   13   17 1
  25   14   15 ar
  26   14   41 1
  27   15   16 ar
  28   15   42 1
  29   16   43 1
  30   18   19 1
  31   19   20 1
  32   19   21 1
  33   19   44 1
  34   20   25 am
  35   20   31 2
  36   21   22 1
  37   21   45 1
  38   21   46 1
  39   22   23 1
  40   22   47 1
  41   22   48 1
  42   23   24 1
  43   23   49 1
  44   23   50 1
  45   24   51 1
  46   24   52 1
  47   24   53 1
  48   25   26 1
  49   25   30 1
  50   26   27 1
  51   26   54 1
  52   26   55 1
  53   27   28 1
  54   27   56 1
  55   27   57 1
  56   28   29 1
  57   28   32 1
  58   28   58 1
  59   29   30 1
  60   29   59 1
  61   29   60 1
  62   30   61 1
  63   30   62 1
  64   32   33 am
  65   32   34 2
  66   33   63 1
  67   33   64 1
  68   36   65 1
  69   36   66 1
  70   36   67 1

#	End of record

