#	Name: ASD01884121
#	Creating user name:	WinNT
#	Creation time:	15. 06. 2019 19:47

#	Modifying user name:	WinNT
#	Modification time:	15. 06. 2019 19:47

#	Program:	/corina/corina34_cracker 3.40 0067  02.08.2006

@<TRIPOS>MOLECULE
ASD01884121
  45   48    0    0    0
SMALL
NO_CHARGES


@<TRIPOS>ATOM
   1 C1            -0.3993     0.7126    -1.0932 C.2     
   2 C2             0.0021    -0.0041     0.0020 C.2     
   3 C3            -0.8216    -0.0452     1.1477 C.2     
   4 C4            -1.9955     0.6161     1.1647 C.2     
   5 N5            -2.4052     1.3331     0.0783 N.pl3   
   6 C6            -1.6255     1.3990    -1.0507 C.2     
   7 N7            -2.2761     2.1549    -1.9222 N.2     
   8 C8            -3.5126     2.0826    -0.1903 C.2     
   9 N9            -3.3864     2.5487    -1.4050 N.2     
  10 C10           -4.6714     2.3262     0.7418 C.3     
  11 Cl11           0.5965     0.7788    -2.5137 Cl      
  12 N12            1.2150    -0.6886    -0.0142 N.pl3   
  13 C13            1.2491    -2.1539     0.0878 C.3     
  14 C14            2.1821    -2.5465     1.2376 C.3     
  15 C15            3.5520    -1.8995     1.0214 C.3     
  16 C16            3.4039    -0.3763     1.0182 C.3     
  17 C17            2.4844     0.0406    -0.1397 C.3     
  18 C18            4.4828    -2.3111     2.1328 C.ar    
  19 C19            5.6477    -2.9956     1.8409 C.ar    
  20 C20            6.5015    -3.3732     2.8604 C.ar    
  21 C21            6.1905    -3.0659     4.1718 C.ar    
  22 C22            5.0260    -2.3806     4.4637 C.ar    
  23 C23            4.1744    -1.9992     3.4437 C.ar    
  24 C24           -4.3986     3.5779     1.5783 C.3     
  25 H25           -0.5097    -0.6094     2.0142 H       
  26 H26           -2.6181     0.5781     2.0463 H       
  27 H27           -5.5819     2.4694     0.1599 H       
  28 H28           -4.7934     1.4675     1.4020 H       
  29 H29            0.2455    -2.5297     0.2869 H       
  30 H30            1.6214    -2.5766    -0.8454 H       
  31 H31            1.7614    -2.2007     2.1818 H       
  32 H32            2.2918    -3.6307     1.2631 H       
  33 H33            3.9612    -2.2265     0.0655 H       
  34 H34            2.9716    -0.0509     1.9645 H       
  35 H35            4.3831     0.0842     0.8875 H       
  36 H36            2.9598    -0.2035    -1.0898 H       
  37 H37            2.2952     1.1128    -0.0883 H       
  38 H38            5.8907    -3.2357     0.8164 H       
  39 H39            7.4113    -3.9087     2.6324 H       
  40 H40            6.8571    -3.3616     4.9684 H       
  41 H41            4.7828    -2.1408     5.4882 H       
  42 H42            3.2646    -1.4638     3.6717 H       
  43 H43           -3.4881     3.4347     2.1602 H       
  44 H44           -4.2765     4.4366     0.9181 H       
  45 H45           -5.2367     3.7542     2.2525 H       
@<TRIPOS>BOND
   1    1    2 2
   2    1   11 1
   3    1    6 1
   4    2    3 1
   5    2   12 1
   6    3    4 2
   7    3   25 1
   8    4    5 1
   9    4   26 1
  10    5    6 1
  11    5    8 1
  12    6    7 2
  13    7    9 1
  14    8    9 2
  15    8   10 1
  16   10   24 1
  17   10   27 1
  18   10   28 1
  19   12   13 1
  20   12   17 1
  21   13   14 1
  22   13   29 1
  23   13   30 1
  24   14   15 1
  25   14   31 1
  26   14   32 1
  27   15   16 1
  28   15   18 1
  29   15   33 1
  30   16   17 1
  31   16   34 1
  32   16   35 1
  33   17   36 1
  34   17   37 1
  35   18   19 ar
  36   18   23 ar
  37   19   20 ar
  38   19   38 1
  39   20   21 ar
  40   20   39 1
  41   21   22 ar
  42   21   40 1
  43   22   23 ar
  44   22   41 1
  45   23   42 1
  46   24   43 1
  47   24   44 1
  48   24   45 1

#	End of record

