#	Name: ASD08150625
#	Creating user name:	WinNT
#	Creation time:	15. 06. 2019 21:16

#	Modifying user name:	WinNT
#	Modification time:	15. 06. 2019 21:16

#	Program:	/corina/corina34_cracker 3.40 0067  02.08.2006

@<TRIPOS>MOLECULE
ASD08150625
  70   77    0    0    0
SMALL
NO_CHARGES


@<TRIPOS>ATOM
   1 N1             3.1223     5.9579     0.4718 N.am    
   2 C2             3.9685     5.7108     1.4905 C.2     
   3 C3             5.1493     4.9685     1.2866 C.2     
   4 C4             5.4511     4.4904     0.0524 C.2     
   5 C5             4.5631     4.7485    -1.0215 C.ar    
   6 C6             4.8283     4.2754    -2.3209 C.ar    
   7 N7             4.0074     4.5150    -3.3098 N.ar    
   8 C8             2.8756     5.2174    -3.1489 C.ar    
   9 C9             2.5282     5.7319    -1.8755 C.ar    
  10 C10            3.3957     5.4905    -0.7843 C.ar    
  11 C11            1.3469     6.4630    -1.7184 C.ar    
  12 C12            0.5259     6.6770    -2.8143 C.ar    
  13 C13            0.8764     6.1642    -4.0715 C.ar    
  14 C14            2.0223     5.4517    -4.2398 C.ar    
  15 O15            3.7096     6.1353     2.6038 O.2     
  16 C16           -0.7284     7.4511    -2.6567 C.ar    
  17 C17            1.9521     6.6933     0.7016 C.ar    
  18 C18            1.9831     8.0812     0.6524 C.ar    
  19 C19            0.8307     8.8057     0.8791 C.ar    
  20 C20           -0.3609     8.1469     1.1561 C.ar    
  21 C21           -0.3918     6.7591     1.2048 C.ar    
  22 C22            0.7601     6.0345     0.9728 C.ar    
  23 N23           -1.5283     8.8807     1.3863 N.3     
  24 C24           -1.4888    10.1685     0.6794 C.3     
  25 C25           -1.7502     9.0796     2.8253 C.3     
  26 C26           -3.0751     9.8158     3.0375 C.3     
  27 N27           -3.0357    11.1036     2.3306 N.3     
  28 C28           -2.8138    10.9046     0.8916 C.3     
  29 C29           -1.9120     6.7895    -2.3467 C.ar    
  30 C30           -3.0784     7.5112    -2.1993 C.ar    
  31 C31           -3.0647     8.8818    -2.3600 C.ar    
  32 C32           -1.8841     9.5622    -2.6722 C.ar    
  33 C33           -0.7095     8.8504    -2.8166 C.ar    
  34 S34           -1.9804    11.3034    -2.8557 S.3     
  35 C35           -0.7395    11.7291    -4.0189 C.ar    
  36 C36            0.4353    11.0162    -4.1679 C.ar    
  37 S37            0.8269     9.5993    -3.2069 S.3     
  38 C38           -0.9690    12.8469    -4.8257 C.ar    
  39 C39           -0.0407    13.2453    -5.7643 C.ar    
  40 C40            1.1346    12.5327    -5.9128 C.ar    
  41 C41            1.3703    11.4285    -5.1212 C.ar    
  42 C42           -1.6839     6.0443     1.5058 C.3     
  43 F43           -1.5024     4.6662     1.3470 F       
  44 F44           -2.0709     6.3150     2.8226 F       
  45 F45           -2.6780     6.4880     0.6270 F       
  46 H46            5.8163     4.7799     2.1148 H       
  47 H47            6.3551     3.9218    -0.1087 H       
  48 H48            5.7265     3.7043    -2.5041 H       
  49 H49            1.0759     6.8577    -0.7503 H       
  50 H50            0.2276     6.3374    -4.9174 H       
  51 H51            2.2770     5.0643    -5.2153 H       
  52 H52            2.9093     8.5933     0.4370 H       
  53 H53            0.8550     9.8848     0.8416 H       
  54 H54            0.7352     4.9553     1.0067 H       
  55 H55           -0.6703    10.7729     1.0703 H       
  56 H56           -1.3362     9.9942    -0.3856 H       
  57 H57           -1.7880     8.1115     3.3247 H       
  58 H58           -0.9346     9.6717     3.2406 H       
  59 H59           -3.8936     9.2113     2.6466 H       
  60 H60           -3.2278     9.9901     4.1026 H       
  61 H61           -3.8783    11.6332     2.4968 H       
  62 H62           -2.7759    11.8728     0.3922 H       
  63 H63           -3.6293    10.3125     0.4764 H       
  64 H64           -1.9179     5.7167    -2.2223 H       
  65 H65           -4.0012     7.0043    -1.9589 H       
  66 H66           -3.9826     9.4387    -2.2427 H       
  67 H67           -1.8860    13.4062    -4.7128 H       
  68 H68           -0.2309    14.1113    -6.3811 H       
  69 H69            1.8657    12.8399    -6.6459 H       
  70 H70            2.2897    10.8744    -5.2400 H       
@<TRIPOS>BOND
   1    1    2 am
   2    1   10 1
   3    1   17 1
   4    2    3 1
   5    2   15 2
   6    3    4 2
   7    3   46 1
   8    4    5 1
   9    4   47 1
  10    5    6 ar
  11    5   10 ar
  12    6    7 ar
  13    6   48 1
  14    7    8 ar
  15    8    9 ar
  16    8   14 ar
  17    9   10 ar
  18    9   11 ar
  19   11   12 ar
  20   11   49 1
  21   12   13 ar
  22   12   16 1
  23   13   14 ar
  24   13   50 1
  25   14   51 1
  26   16   29 ar
  27   16   33 ar
  28   17   18 ar
  29   17   22 ar
  30   18   19 ar
  31   18   52 1
  32   19   20 ar
  33   19   53 1
  34   20   21 ar
  35   20   23 1
  36   21   22 ar
  37   21   42 1
  38   22   54 1
  39   23   24 1
  40   23   25 1
  41   24   28 1
  42   24   55 1
  43   24   56 1
  44   25   26 1
  45   25   57 1
  46   25   58 1
  47   26   27 1
  48   26   59 1
  49   26   60 1
  50   27   28 1
  51   27   61 1
  52   28   62 1
  53   28   63 1
  54   29   30 ar
  55   29   64 1
  56   30   31 ar
  57   30   65 1
  58   31   32 ar
  59   31   66 1
  60   32   33 ar
  61   32   34 1
  62   33   37 1
  63   34   35 1
  64   35   36 ar
  65   35   38 ar
  66   36   37 1
  67   36   41 ar
  68   38   39 ar
  69   38   67 1
  70   39   40 ar
  71   39   68 1
  72   40   41 ar
  73   40   69 1
  74   41   70 1
  75   42   43 1
  76   42   44 1
  77   42   45 1

#	End of record

