#	Name: ASD05143273
#	Creating user name:	WinNT
#	Creation time:	15. 06. 2019 20:57

#	Modifying user name:	WinNT
#	Modification time:	15. 06. 2019 20:57

#	Program:	/corina/corina34_cracker 3.40 0067  02.08.2006

@<TRIPOS>MOLECULE
ASD05143273
  44   46    0    0    0
SMALL
NO_CHARGES


@<TRIPOS>ATOM
   1 C1            -0.2465     1.4566     0.0974 C.2     
   2 N2            -0.0162     0.2020    -0.2360 N.2     
   3 S3            -1.5415    -0.5440    -0.3024 S.3     
   4 C4            -2.4145     0.8782     0.1240 C.2     
   5 N5            -1.5017     1.8100     0.2909 N.2     
   6 N6            -3.7834     1.0107     0.2657 N.pl3   
   7 C7            -4.3234     2.2052     0.7506 C.ar    
   8 C8            -5.6217     2.5687     0.4159 C.ar    
   9 C9            -6.1524     3.7494     0.8972 C.ar    
  10 C10           -5.3927     4.5697     1.7110 C.ar    
  11 C11           -4.0998     4.2111     2.0458 C.ar    
  12 C12           -3.5651     3.0288     1.5730 C.ar    
  13 C13            1.2020    -0.3803    -0.4788 C.ar    
  14 C14            1.6051    -1.4955     0.2577 C.ar    
  15 C15            2.0414     0.1363    -1.4672 C.ar    
  16 C16            3.2651    -0.4540    -1.7063 C.ar    
  17 C17            3.6611    -1.5557    -0.9688 C.ar    
  18 C18            2.8314    -2.0763     0.0085 C.ar    
  19 C19            0.8608     2.4283     0.2541 C.ar    
  20 C20            0.6632     3.7720    -0.0624 C.ar    
  21 C21            2.1033     2.0039     0.7242 C.ar    
  22 C22            3.1308     2.9135     0.8681 C.ar    
  23 C23            2.9302     4.2443     0.5475 C.ar    
  24 C24            1.6984     4.6722     0.0857 C.ar    
  25 C25           -5.9750     5.8576     2.2339 C.3     
  26 H26           -4.3690     0.2747     0.0286 H       
  27 H27           -6.2153     1.9288    -0.2202 H       
  28 H28           -7.1617     4.0325     0.6373 H       
  29 H29           -3.5091     4.8542     2.6813 H       
  30 H30           -2.5554     2.7492     1.8351 H       
  31 H31            0.9586    -1.9026     1.0210 H       
  32 H32            1.7333     0.9960    -2.0438 H       
  33 H33            3.9153    -0.0555    -2.4710 H       
  34 H34            4.6201    -2.0141    -1.1599 H       
  35 H35            3.1465    -2.9364     0.5806 H       
  36 H36           -0.2980     4.1072    -0.4230 H       
  37 H37            2.2608     0.9654     0.9755 H       
  38 H38            4.0935     2.5861     1.2320 H       
  39 H39            3.7373     4.9527     0.6624 H       
  40 H40            1.5478     5.7124    -0.1631 H       
  41 H41           -6.4677     5.6724     3.1884 H       
  42 H42           -5.1772     6.5872     2.3723 H       
  43 H43           -6.7013     6.2445     1.5191 H       
  44 Br44           9.6201    11.5872     8.1884 Br      
@<TRIPOS>BOND
   1    1    2 2
   2    1   19 1
   3    1    5 1
   4    2    3 1
   5    2   13 1
   6    3    4 1
   7    4    5 2
   8    4    6 1
   9    6    7 1
  10    6   26 1
  11    7    8 ar
  12    7   12 ar
  13    8    9 ar
  14    8   27 1
  15    9   10 ar
  16    9   28 1
  17   10   11 ar
  18   10   25 1
  19   11   12 ar
  20   11   29 1
  21   12   30 1
  22   13   14 ar
  23   13   15 ar
  24   14   18 ar
  25   14   31 1
  26   15   16 ar
  27   15   32 1
  28   16   17 ar
  29   16   33 1
  30   17   18 ar
  31   17   34 1
  32   18   35 1
  33   19   20 ar
  34   19   21 ar
  35   20   24 ar
  36   20   36 1
  37   21   22 ar
  38   21   37 1
  39   22   23 ar
  40   22   38 1
  41   23   24 ar
  42   23   39 1
  43   24   40 1
  44   25   41 1
  45   25   42 1
  46   25   43 1

#	End of record

