#	Name: ASD00310082
#	Creating user name:	WinNT
#	Creation time:	15. 06. 2019 18:33

#	Modifying user name:	WinNT
#	Modification time:	15. 06. 2019 18:33

#	Program:	/corina/corina34_cracker 3.40 0067  02.08.2006

@<TRIPOS>MOLECULE
ASD00310082
  31   33    0    0    0
SMALL
NO_CHARGES


@<TRIPOS>ATOM
   1 N1            -0.0165     1.3621     0.0095 N.pl3   
   2 C2             0.0021    -0.0041     0.0020 C.2     
   3 C3             1.2709    -0.4465    -0.0125 C.2     
   4 C4             2.1365     0.7341    -0.0144 C.ar    
   5 C5             3.5213     0.9146    -0.0266 C.ar    
   6 C6             4.0472     2.1952    -0.0248 C.ar    
   7 C7             3.1830     3.3128    -0.0105 C.ar    
   8 C8             1.8034     3.1308     0.0021 C.ar    
   9 C9             1.2737     1.8486    -0.0002 C.ar    
  10 C10            3.7284     4.6369    -0.0086 C.1     
  11 N11            4.1611     5.6873    -0.0071 N.1     
  12 C12            5.5157     2.3936    -0.0372 C.ar    
  13 C13            6.0959     3.2608    -0.9626 C.ar    
  14 C14            7.4625     3.4435    -0.9712 C.ar    
  15 C15            8.2609     2.7652    -0.0599 C.ar    
  16 C16            7.6865     1.9008     0.8625 C.ar    
  17 C17            6.3199     1.7180     0.8802 C.ar    
  18 O18            9.6072     2.9475    -0.0710 O.3     
  19 C19           10.3686     2.2186     0.8940 C.3     
  20 H20           -0.8179     1.9084     0.0164 H       
  21 H21           -0.8741    -0.6355     0.0073 H       
  22 H22            1.5914    -1.4778    -0.0207 H       
  23 H23            4.1794     0.0583    -0.0371 H       
  24 H24            1.1455     3.9872     0.0133 H       
  25 H25            5.4755     3.7884    -1.6719 H       
  26 H26            7.9125     4.1146    -1.6878 H       
  27 H27            8.3103     1.3745     1.5697 H       
  28 H28            5.8733     1.0489     1.6008 H       
  29 H29           10.0438     2.4950     1.8971 H       
  30 H30           10.2165     1.1496     0.7445 H       
  31 H31           11.4261     2.4551     0.7763 H       
@<TRIPOS>BOND
   1    1    2 1
   2    1    9 1
   3    1   20 1
   4    2    3 2
   5    2   21 1
   6    3    4 1
   7    3   22 1
   8    4    5 ar
   9    4    9 ar
  10    5    6 ar
  11    5   23 1
  12    6    7 ar
  13    6   12 1
  14    7    8 ar
  15    7   10 1
  16    8    9 ar
  17    8   24 1
  18   10   11 3
  19   12   13 ar
  20   12   17 ar
  21   13   14 ar
  22   13   25 1
  23   14   15 ar
  24   14   26 1
  25   15   16 ar
  26   15   18 1
  27   16   17 ar
  28   16   27 1
  29   17   28 1
  30   18   19 1
  31   19   29 1
  32   19   30 1
  33   19   31 1

#	End of record

