#	Name: ASD01814197
#	Creating user name:	WinNT
#	Creation time:	15. 06. 2019 19:31

#	Modifying user name:	WinNT
#	Modification time:	15. 06. 2019 19:31

#	Program:	/corina/corina34_cracker 3.40 0067  02.08.2006

@<TRIPOS>MOLECULE
ASD01814197
  57   61    0    0    0
SMALL
NO_CHARGES


@<TRIPOS>ATOM
   1 N1            -0.8834     2.2876     2.5146 N.2     
   2 C2            -1.1253     1.2672     3.3033 C.2     
   3 C3            -0.2265     0.9374     4.3293 C.2     
   4 C4             0.8941     1.6823     4.4985 C.2     
   5 N5             1.1215     2.7390     3.6635 N.pl3   
   6 C6             0.2202     3.0304     2.6724 C.2     
   7 N7             2.1573     3.6755     3.5831 N.2     
   8 C8             1.9066     4.5046     2.5900 C.2     
   9 C9             0.7108     4.1400     1.9944 C.2     
  10 C10            2.4584     5.7098     1.8689 C.3     
  11 N11            1.5210     6.0562     0.7961 N.am    
  12 C12            0.4222     5.0870     0.8581 C.3     
  13 C13            1.6454     7.0723    -0.0805 C.2     
  14 O14            0.8442     7.1948    -0.9870 O.2     
  15 C15            2.7528     8.0353     0.0596 C.ar    
  16 C16            2.5012     9.4134    -0.0080 C.ar    
  17 C17            4.0576     7.5797     0.2663 C.ar    
  18 C18            5.0884     8.4834     0.3971 C.ar    
  19 C19            4.8372     9.8466     0.3244 C.ar    
  20 C20            3.5486    10.3103     0.1253 C.ar    
  21 O21            1.2375     9.8662    -0.2036 O.3     
  22 C22            1.0492    11.2827    -0.2070 C.3     
  23 C23           -1.4307    10.9999    -0.2691 C.3     
  24 C24           -0.2282    11.6273    -0.9778 C.3     
  25 C25            0.9178    11.7849     1.2335 C.3     
  26 C26           -0.3179    11.1530     1.8781 C.3     
  27 N27           -1.5132    11.5127     1.1045 N.3     
  28 C28            1.8747     1.3490     5.5932 C.3     
  29 Cl29          -0.5464    -0.4122     5.3733 Cl      
  30 C30           -2.3738     0.4463     3.1069 C.3     
  31 C31           -2.7119    11.3584    -1.0248 C.3     
  32 F32            5.8551    10.7254     0.4543 F       
  33 H33            2.5506     6.5453     2.5629 H       
  34 H34            3.4338     5.4718     1.4445 H       
  35 H35            0.3643     4.5331    -0.0789 H       
  36 H36           -0.5185     5.6066     1.0400 H       
  37 H37            4.2573     6.5199     0.3238 H       
  38 H38            6.0963     8.1301     0.5571 H       
  39 H39            3.3594    11.3723     0.0735 H       
  40 H40            1.9040    11.7627    -0.6836 H       
  41 H41           -1.3140     9.9165    -0.2459 H       
  42 H42           -0.3508    12.7098    -1.0136 H       
  43 H43           -0.1581    11.2347    -1.9923 H       
  44 H44            1.8066    11.5050     1.7990 H       
  45 H45            0.8132    12.8699     1.2325 H       
  46 H46           -0.2065    10.0688     1.8913 H       
  47 H47           -0.4224    11.5196     2.8993 H       
  48 H48           -1.6604    12.5108     1.1096 H       
  49 H49            1.5192     0.4802     6.1472 H       
  50 H50            2.8474     1.1270     5.1544 H       
  51 H51            1.9666     2.1987     6.2697 H       
  52 H52           -2.9452     0.8485     2.2703 H       
  53 H53           -2.0996    -0.5873     2.8960 H       
  54 H54           -2.9796     0.4841     4.0122 H       
  55 H55           -2.6512    10.9771    -2.0441 H       
  56 H56           -3.5685    10.9117    -0.5201 H       
  57 H57           -2.8286    12.4419    -1.0485 H       
@<TRIPOS>BOND
   1    1    2 2
   2    1    6 1
   3    2    3 1
   4    2   30 1
   5    3    4 2
   6    3   29 1
   7    4    5 1
   8    4   28 1
   9    5    7 1
  10    5    6 1
  11    6    9 2
  12    7    8 2
  13    8   10 1
  14    8    9 1
  15    9   12 1
  16   10   11 1
  17   10   33 1
  18   10   34 1
  19   11   12 1
  20   11   13 am
  21   12   35 1
  22   12   36 1
  23   13   14 2
  24   13   15 1
  25   15   17 ar
  26   15   16 ar
  27   16   20 ar
  28   16   21 1
  29   17   18 ar
  30   17   37 1
  31   18   19 ar
  32   18   38 1
  33   19   20 ar
  34   19   32 1
  35   20   39 1
  36   21   22 1
  37   22   25 1
  38   22   24 1
  39   22   40 1
  40   23   24 1
  41   23   27 1
  42   23   31 1
  43   23   41 1
  44   24   42 1
  45   24   43 1
  46   25   26 1
  47   25   44 1
  48   25   45 1
  49   26   27 1
  50   26   46 1
  51   26   47 1
  52   27   48 1
  53   28   49 1
  54   28   50 1
  55   28   51 1
  56   30   52 1
  57   30   53 1
  58   30   54 1
  59   31   55 1
  60   31   56 1
  61   31   57 1

#	End of record

