#	Name: ASD02500046
#	Creating user name:	WinNT
#	Creation time:	15. 06. 2019 20:22

#	Modifying user name:	WinNT
#	Modification time:	15. 06. 2019 20:22

#	Program:	/corina/corina34_cracker 3.40 0067  02.08.2006

@<TRIPOS>MOLECULE
ASD02500046
  62   66    0    0    0
SMALL
NO_CHARGES


@<TRIPOS>ATOM
   1 N1             1.9311     3.9591    -0.7376 N.ar    
   2 C2             2.8850     3.6626     0.1111 C.ar    
   3 C3             4.0258     2.9658    -0.2821 C.ar    
   4 C4             4.1704     2.5732    -1.5822 C.ar    
   5 C5             3.1437     2.8930    -2.4907 C.ar    
   6 C6             3.2223     2.5230    -3.8427 C.ar    
   7 C7             2.2084     2.8514    -4.6903 C.ar    
   8 C8             1.0932     3.5506    -4.2337 C.ar    
   9 C9             0.9843     3.9249    -2.9297 C.ar    
  10 C10            2.0103     3.6042    -2.0241 C.ar    
  11 S11           -0.4369     4.8090    -2.3791 S.o2    
  12 O12            0.0447     5.9166    -1.6304 O.2     
  13 O13           -1.2873     4.9456    -3.5093 O.2     
  14 N14           -1.2369     3.8325    -1.3073 N.am    
  15 C15           -1.7834     2.6286    -1.7379 C.ar    
  16 C16           -1.5828     1.4692    -0.9939 C.ar    
  17 C17           -2.1223     0.2762    -1.4174 C.ar    
  18 C18           -2.8726     0.2294    -2.5960 C.ar    
  19 C19           -3.0722     1.3954    -3.3409 C.ar    
  20 C20           -2.5348     2.5864    -2.9091 C.ar    
  21 C21           -3.4520    -1.0480    -3.0531 C.2     
  22 O22           -4.5736    -1.0736    -3.5221 O.2     
  23 N23           -2.7381    -2.1866    -2.9510 N.am    
  24 C24           -3.2578    -3.4540    -3.4865 C.3     
  25 C25           -2.1833    -4.0816    -4.3808 C.3     
  26 N26           -0.9277    -4.1943    -3.6266 N.3     
  27 C27           -0.4167    -2.8719    -3.2418 C.3     
  28 C28           -1.4162    -2.1935    -2.3063 C.3     
  29 C29            0.0309    -4.9106    -4.3526 C.ar    
  30 C30           -0.1662    -6.2629    -4.6254 C.ar    
  31 C31            0.7852    -6.9665    -5.3444 C.ar    
  32 C32            1.9283    -6.3274    -5.7898 C.ar    
  33 C33            2.1248    -4.9864    -5.5192 C.ar    
  34 C34            1.1767    -4.2752    -4.8072 C.ar    
  35 O35           -1.2902    -6.8903    -4.1861 O.3     
  36 C36           -1.4250    -8.2772    -4.5029 C.3     
  37 F37           -0.3560    -8.9884    -3.9473 F       
  38 F38           -2.6289    -8.7603    -3.9792 F       
  39 F39           -1.4219    -8.4407    -5.8923 F       
  40 H40            2.7842     3.9667     1.1425 H       
  41 H41            4.7951     2.7367     0.4404 H       
  42 H42            5.0482     2.0327    -1.9043 H       
  43 H43            4.0821     1.9815    -4.2085 H       
  44 H44            2.2697     2.5665    -5.7302 H       
  45 H45            0.3025     3.8000    -4.9258 H       
  46 H46           -1.3242     4.1004    -0.3791 H       
  47 H47           -1.0028     1.5059    -0.0836 H       
  48 H48           -1.9661    -0.6230    -0.8400 H       
  49 H49           -3.6510     1.3623    -4.2521 H       
  50 H50           -2.6927     3.4884    -3.4816 H       
  51 H51           -3.4910    -4.1307    -2.6645 H       
  52 H52           -4.1564    -3.2626    -4.0731 H       
  53 H53           -2.5074    -5.0728    -4.6979 H       
  54 H54           -2.0261    -3.4524    -5.2569 H       
  55 H55            0.5404    -2.9858    -2.7328 H       
  56 H56           -0.2842    -2.2595    -4.1337 H       
  57 H57           -1.0977    -1.1692    -2.1130 H       
  58 H58           -1.4690    -2.7467    -1.3686 H       
  59 H59            0.6350    -8.0146    -5.5573 H       
  60 H60            2.6695    -6.8780    -6.3502 H       
  61 H61            3.0192    -4.4918    -5.8684 H       
  62 H62            1.3306    -3.2263    -4.6011 H       
@<TRIPOS>BOND
   1    1    2 ar
   2    1   10 ar
   3    2    3 ar
   4    2   40 1
   5    3    4 ar
   6    3   41 1
   7    4    5 ar
   8    4   42 1
   9    5    6 ar
  10    5   10 ar
  11    6    7 ar
  12    6   43 1
  13    7    8 ar
  14    7   44 1
  15    8    9 ar
  16    8   45 1
  17    9   10 ar
  18    9   11 1
  19   11   12 2
  20   11   13 2
  21   11   14 am
  22   14   15 1
  23   14   46 1
  24   15   16 ar
  25   15   20 ar
  26   16   17 ar
  27   16   47 1
  28   17   18 ar
  29   17   48 1
  30   18   19 ar
  31   18   21 1
  32   19   20 ar
  33   19   49 1
  34   20   50 1
  35   21   22 2
  36   21   23 am
  37   23   24 1
  38   23   28 1
  39   24   25 1
  40   24   51 1
  41   24   52 1
  42   25   26 1
  43   25   53 1
  44   25   54 1
  45   26   27 1
  46   26   29 1
  47   27   28 1
  48   27   55 1
  49   27   56 1
  50   28   57 1
  51   28   58 1
  52   29   30 ar
  53   29   34 ar
  54   30   31 ar
  55   30   35 1
  56   31   32 ar
  57   31   59 1
  58   32   33 ar
  59   32   60 1
  60   33   34 ar
  61   33   61 1
  62   34   62 1
  63   35   36 1
  64   36   37 1
  65   36   38 1
  66   36   39 1

#	End of record

