#	Name: ASD01816140
#	Creating user name:	WinNT
#	Creation time:	15. 06. 2019 19:34

#	Modifying user name:	WinNT
#	Modification time:	15. 06. 2019 19:34

#	Program:	/corina/corina34_cracker 3.40 0067  02.08.2006

@<TRIPOS>MOLECULE
ASD01816140
  66   72    0    0    0
SMALL
NO_CHARGES


@<TRIPOS>ATOM
   1 C1            -0.0167     1.3813     0.0096 C.ar    
   2 C2             0.0021    -0.0041     0.0020 C.ar    
   3 C3             1.1984    -0.6909    -0.0127 C.ar    
   4 C4             2.4015     0.0059    -0.0200 C.ar    
   5 C5             2.3790     1.4106    -0.0127 C.ar    
   6 C6             1.1663     2.0916     0.0022 C.ar    
   7 N7             3.6053    -0.6772    -0.0338 N.pl3   
   8 C8             4.7970    -0.0586    -0.0409 C.2     
   9 C9             4.9000     1.3103    -0.0349 C.2     
  10 C10            3.6670     2.1301    -0.0207 C.2     
  11 C11            5.9971     2.2729    -0.0391 C.2     
  12 N12            5.4246     3.4960    -0.0282 N.am    
  13 N13            4.0323     3.3799    -0.0174 N.2     
  14 O14            7.1915     2.0229    -0.0495 O.2     
  15 C15            3.5779    -2.1419    -0.0404 C.3     
  16 C16            3.5560    -2.6375    -1.4634 C.ar    
  17 N17            2.4046    -2.7352    -2.0991 N.ar    
  18 C18            2.3313    -3.1626    -3.3432 C.ar    
  19 C19            3.4829    -3.5302    -4.0356 C.ar    
  20 C20            4.7188    -3.4380    -3.3892 C.ar    
  21 C21            4.7444    -2.9775    -2.0842 C.ar    
  22 C22            6.1265     4.7081    -0.0278 C.ar    
  23 C23            5.8865     5.6523     0.9648 C.ar    
  24 C24            7.0677     4.9677    -1.0150 C.ar    
  25 C25            7.7583     6.1639    -1.0120 C.ar    
  26 C26            7.5140     7.1037    -0.0273 C.ar    
  27 C27            6.5819     6.8478     0.9614 C.ar    
  28 F28            4.9754     5.4022     1.9305 F       
  29 C29            3.3988    -4.0122    -5.4362 C.ar    
  30 C30            4.5506    -4.3791    -6.1265 C.ar    
  31 N31            4.4811    -4.8084    -7.3706 N.ar    
  32 C32            3.3253    -4.9078    -8.0101 C.ar    
  33 C33            2.1315    -4.5589    -7.3852 C.ar    
  34 C34            2.1600    -4.1098    -6.0796 C.ar    
  35 N35            3.3045    -5.3660    -9.3215 N.3     
  36 C36            4.6613    -5.6779    -9.7920 C.3     
  37 C37            4.5876    -6.2527   -11.2085 C.3     
  38 N38            3.9363    -5.2793   -12.0961 N.3     
  39 C39            2.5794    -4.9674   -11.6256 C.3     
  40 C40            2.6532    -4.3925   -10.2091 C.3     
  41 H41           -0.9602     1.9068     0.0170 H       
  42 H42           -0.9289    -0.5515     0.0080 H       
  43 H43            1.2004    -1.7709    -0.0181 H       
  44 H44            1.1506     3.1715     0.0077 H       
  45 H45            5.6983    -0.6536    -0.0513 H       
  46 H46            4.4654    -2.5242     0.4639 H       
  47 H47            2.6859    -2.4910     0.4797 H       
  48 H48            1.3697    -3.2289    -3.8304 H       
  49 H49            5.6311    -3.7148    -3.8967 H       
  50 H50            5.6811    -2.8931    -1.5534 H       
  51 H51            7.2599     4.2346    -1.7845 H       
  52 H52            8.4906     6.3655    -1.7798 H       
  53 H53            8.0560     8.0378    -0.0278 H       
  54 H54            6.3934     7.5839     1.7289 H       
  55 H55            5.5112    -4.3110    -5.6376 H       
  56 H56            1.1934    -4.6423    -7.9139 H       
  57 H57            1.2490    -3.8326    -5.5701 H       
  58 H58            5.2617    -4.7682    -9.7995 H       
  59 H59            5.1179    -6.4098    -9.1258 H       
  60 H60            5.5950    -6.4578   -11.5706 H       
  61 H61            4.0100    -7.1770   -11.1963 H       
  62 H62            4.4908    -4.4408   -12.1822 H       
  63 H63            2.1228    -4.2354   -12.2918 H       
  64 H64            1.9791    -5.8771   -11.6181 H       
  65 H65            1.6457    -4.1874    -9.8470 H       
  66 H66            3.2307    -3.4682   -10.2213 H       
@<TRIPOS>BOND
   1    1    2 ar
   2    1    6 ar
   3    1   41 1
   4    2    3 ar
   5    2   42 1
   6    3    4 ar
   7    3   43 1
   8    4    5 ar
   9    4    7 1
  10    5    6 ar
  11    5   10 1
  12    6   44 1
  13    7    8 1
  14    7   15 1
  15    8    9 2
  16    8   45 1
  17    9   10 1
  18    9   11 1
  19   10   13 2
  20   11   12 am
  21   11   14 2
  22   12   13 1
  23   12   22 1
  24   15   16 1
  25   15   46 1
  26   15   47 1
  27   16   17 ar
  28   16   21 ar
  29   17   18 ar
  30   18   19 ar
  31   18   48 1
  32   19   20 ar
  33   19   29 1
  34   20   21 ar
  35   20   49 1
  36   21   50 1
  37   22   23 ar
  38   22   24 ar
  39   23   28 1
  40   23   27 ar
  41   24   25 ar
  42   24   51 1
  43   25   26 ar
  44   25   52 1
  45   26   27 ar
  46   26   53 1
  47   27   54 1
  48   29   30 ar
  49   29   34 ar
  50   30   31 ar
  51   30   55 1
  52   31   32 ar
  53   32   33 ar
  54   32   35 1
  55   33   34 ar
  56   33   56 1
  57   34   57 1
  58   35   36 1
  59   35   40 1
  60   36   37 1
  61   36   58 1
  62   36   59 1
  63   37   38 1
  64   37   60 1
  65   37   61 1
  66   38   39 1
  67   38   62 1
  68   39   40 1
  69   39   63 1
  70   39   64 1
  71   40   65 1
  72   40   66 1

#	End of record

