#	Name: ASD02508411
#	Creating user name:	WinNT
#	Creation time:	15. 06. 2019 20:24

#	Modifying user name:	WinNT
#	Modification time:	15. 06. 2019 20:24

#	Program:	/corina/corina34_cracker 3.40 0067  02.08.2006

@<TRIPOS>MOLECULE
ASD02508411
  32   34    0    0    0
SMALL
NO_CHARGES


@<TRIPOS>ATOM
   1 N1             0.5509     1.4558     0.6091 N.2     
   2 C2             0.4177     0.1207     0.6125 C.2     
   3 C3             1.5689    -0.4186     0.1708 C.2     
   4 N4             2.4163     0.6251    -0.1052 N.pl3   
   5 C5             1.7424     1.7711     0.1818 C.2     
   6 C6             3.7212     0.5289    -0.5878 C.ar    
   7 N7             4.4126     1.6362    -0.8043 N.ar    
   8 N8             4.2394    -0.6676    -0.8130 N.ar    
   9 C9             5.4739    -0.7950    -1.2707 C.ar    
  10 C10            6.2253     0.3442    -1.5140 C.ar    
  11 C11            5.6526     1.5810    -1.2617 C.ar    
  12 S12            1.9207    -2.1349    -0.0167 S.o2    
  13 O13            1.6529    -2.4533    -1.3755 O.2     
  14 O14            3.1822    -2.3555     0.5992 O.2     
  15 N15            0.8080    -2.9649     0.8861 N.am    
  16 C16            0.7640    -2.7923     2.2714 C.ar    
  17 C17           -0.4532    -2.5888     2.9085 C.ar    
  18 C18           -0.4945    -2.4181     4.2807 C.ar    
  19 C19            0.6767    -2.4495     5.0189 C.ar    
  20 C20            1.8915    -2.6518     4.3856 C.ar    
  21 C21            1.9367    -2.8296     3.0144 C.ar    
  22 F22           -1.6782    -2.2201     4.9010 F       
  23 F23            3.0327    -2.6815     5.1082 F       
  24 H24           -0.4618    -0.4269     0.9175 H       
  25 H25            2.1287     2.7738     0.0737 H       
  26 H26            5.8914    -1.7744    -1.4522 H       
  27 H27            7.2358     0.2696    -1.8878 H       
  28 H28            6.2103     2.4885    -1.4403 H       
  29 H29            0.1868    -3.5710     0.4529 H       
  30 H30           -1.3668    -2.5636     2.3331 H       
  31 H31            0.6427    -2.3156     6.0900 H       
  32 H32            2.8843    -2.9878     2.5210 H       
@<TRIPOS>BOND
   1    1    2 1
   2    1    5 2
   3    2    3 2
   4    2   24 1
   5    3    4 1
   6    3   12 1
   7    4    5 1
   8    4    6 1
   9    5   25 1
  10    6    7 ar
  11    6    8 ar
  12    7   11 ar
  13    8    9 ar
  14    9   10 ar
  15    9   26 1
  16   10   11 ar
  17   10   27 1
  18   11   28 1
  19   12   13 2
  20   12   14 2
  21   12   15 am
  22   15   16 1
  23   15   29 1
  24   16   17 ar
  25   16   21 ar
  26   17   18 ar
  27   17   30 1
  28   18   19 ar
  29   18   22 1
  30   19   20 ar
  31   19   31 1
  32   20   21 ar
  33   20   23 1
  34   21   32 1

#	End of record

