#	Name: ASD01940344
#	Creating user name:	WinNT
#	Creation time:	15. 06. 2019 20:12

#	Modifying user name:	WinNT
#	Modification time:	15. 06. 2019 20:12

#	Program:	/corina/corina34_cracker 3.40 0067  02.08.2006

@<TRIPOS>MOLECULE
ASD01940344
  39   41    0    0    0
SMALL
NO_CHARGES


@<TRIPOS>ATOM
   1 C1            -0.3054     1.7146    -0.3074 C.3     
   2 C2            -0.3890     0.1877    -0.3590 C.3     
   3 C3             0.9723     0.8758    -0.2382 C.3     
   4 S4            -0.6285     2.6234    -1.8437 S.o2    
   5 O5             0.3467     2.3039    -2.8266 O.2     
   6 O6            -2.0152     2.6021    -2.1535 O.2     
   7 N7            -0.3198     4.2048    -1.4611 N.am    
   8 C8             0.9597     4.5857    -1.0353 C.ar    
   9 C9             1.1070     5.5762    -0.0650 C.ar    
  10 C10            2.3769     5.9492     0.3534 C.ar    
  11 C11            3.4934     5.3368    -0.1940 C.ar    
  12 C12            3.3446     4.3542    -1.1573 C.ar    
  13 C13            2.0815     3.9744    -1.5739 C.ar    
  14 N14           -0.0242     6.1938     0.4861 N.pl3   
  15 C15            0.1014     7.4174     1.1507 C.ar    
  16 C16            0.3228     8.5849     0.4267 C.ar    
  17 C17            0.4464     9.7925     1.0880 C.ar    
  18 C18            0.3502     9.8400     2.4672 C.ar    
  19 C19            0.1303     8.6815     3.1886 C.ar    
  20 C20           -0.0001     7.4715     2.5342 C.ar    
  21 C21            0.4860    11.1581     3.1850 C.3     
  22 F22            0.4172     8.5382    -0.9202 F       
  23 F23            4.7293     5.7000     0.2133 F       
  24 F24            2.5245     6.9087     1.2929 F       
  25 H25           -0.6350     2.2060     0.6079 H       
  26 H26           -0.7735    -0.3253     0.5225 H       
  27 H27           -0.6381    -0.2706    -1.3160 H       
  28 H28            1.6187     0.8700    -1.1158 H       
  29 H29            1.4832     0.8154     0.7227 H       
  30 H30           -1.0247     4.8674    -1.5316 H       
  31 H31            4.2170     3.8796    -1.5817 H       
  32 H32            1.9692     3.2042    -2.3226 H       
  33 H33           -0.8942     5.7722     0.4063 H       
  34 H34            0.6186    10.6994     0.5275 H       
  35 H35            0.0558     8.7229     4.2652 H       
  36 H36           -0.1763     6.5679     3.0989 H       
  37 H37           -0.4958    11.6217     3.2823 H       
  38 H38            0.9084    10.9904     4.1758 H       
  39 H39            1.1435    11.8156     2.6162 H       
@<TRIPOS>BOND
   1    1    2 1
   2    1    3 1
   3    1    4 1
   4    1   25 1
   5    2    3 1
   6    2   26 1
   7    2   27 1
   8    3   28 1
   9    3   29 1
  10    4    5 2
  11    4    6 2
  12    4    7 am
  13    7    8 1
  14    7   30 1
  15    8    9 ar
  16    8   13 ar
  17    9   10 ar
  18    9   14 1
  19   10   11 ar
  20   10   24 1
  21   11   12 ar
  22   11   23 1
  23   12   13 ar
  24   12   31 1
  25   13   32 1
  26   14   15 1
  27   14   33 1
  28   15   16 ar
  29   15   20 ar
  30   16   17 ar
  31   16   22 1
  32   17   18 ar
  33   17   34 1
  34   18   19 ar
  35   18   21 1
  36   19   20 ar
  37   19   35 1
  38   20   36 1
  39   21   37 1
  40   21   38 1
  41   21   39 1

#	End of record

