#	Name: ASD01140130
#	Creating user name:	WinNT
#	Creation time:	15. 06. 2019 19:00

#	Modifying user name:	WinNT
#	Modification time:	15. 06. 2019 19:00

#	Program:	/corina/corina34_cracker 3.40 0067  02.08.2006

@<TRIPOS>MOLECULE
ASD01140130
  26   27    0    0    0
SMALL
NO_CHARGES


@<TRIPOS>ATOM
   1 C1            -0.0166     1.3763     0.0096 C.ar    
   2 C2             0.0021    -0.0041     0.0020 C.ar    
   3 C3             1.2188    -0.6827    -0.0133 C.ar    
   4 C4             2.4122     0.0363    -0.0209 C.ar    
   5 C5             2.3829     1.4182    -0.0132 C.ar    
   6 C6             1.1694     2.0869     0.0021 C.ar    
   7 F7             3.5387     2.1177    -0.0200 F       
   8 C8             1.2436    -2.1663    -0.0210 C.ar    
   9 C9             0.0462    -2.8838    -0.0129 C.ar    
  10 C10            0.0618    -4.2623    -0.0205 C.ar    
  11 C11            1.2685    -4.9471    -0.0362 C.ar    
  12 C12            2.4774    -4.2352    -0.0444 C.ar    
  13 C13            2.4586    -2.8401    -0.0421 C.ar    
  14 O14            1.2793    -6.3032    -0.0431 O.3     
  15 C15            3.7621    -4.9582    -0.0610 C.2     
  16 O16            3.7754    -6.1732    -0.0676 O.2     
  17 O17            4.9215    -4.2717    -0.0689 O.3     
  18 H18           -0.9599     1.9023     0.0169 H       
  19 H19           -0.9254    -0.5573     0.0083 H       
  20 H20            3.3581    -0.4849    -0.0324 H       
  21 H21            1.1499     3.1667     0.0077 H       
  22 H22           -0.8964    -2.3568    -0.0003 H       
  23 H23           -0.8684    -4.8110    -0.0138 H       
  24 H24            3.3855    -2.2858    -0.0484 H       
  25 H25            1.2734    -6.6921    -0.9285 H       
  26 H26            5.7382    -4.7894    -0.0798 H       
@<TRIPOS>BOND
   1    1    2 ar
   2    1    6 ar
   3    1   18 1
   4    2    3 ar
   5    2   19 1
   6    3    4 ar
   7    3    8 1
   8    4    5 ar
   9    4   20 1
  10    5    6 ar
  11    5    7 1
  12    6   21 1
  13    8    9 ar
  14    8   13 ar
  15    9   10 ar
  16    9   22 1
  17   10   11 ar
  18   10   23 1
  19   11   12 ar
  20   11   14 1
  21   12   13 ar
  22   12   15 1
  23   13   24 1
  24   14   25 1
  25   15   16 2
  26   15   17 1
  27   17   26 1

#	End of record

