#	Name: ASD01900439
#	Creating user name:	WinNT
#	Creation time:	15. 06. 2019 19:51

#	Modifying user name:	WinNT
#	Modification time:	15. 06. 2019 19:51

#	Program:	/corina/corina34_cracker 3.40 0067  02.08.2006

@<TRIPOS>MOLECULE
ASD01900439
  25   26    0    0    0
SMALL
NO_CHARGES


@<TRIPOS>ATOM
   1 N1            -0.0169     1.3967     0.0097 N.pl3   
   2 N2             0.0021    -0.0041     0.0020 N.2     
   3 C3             1.2507    -0.3963    -0.0120 C.2     
   4 C4             2.0667     0.7401    -0.0137 C.2     
   5 C5             1.2639     1.8296    -0.0002 C.2     
   6 C6            -1.1619     2.2065     0.0198 C.ar    
   7 C7            -2.4235     1.6267     0.0234 C.ar    
   8 C8            -3.5496     2.4257     0.0338 C.ar    
   9 C9            -3.4213     3.8048     0.0402 C.ar    
  10 C10           -2.1640     4.3848     0.0366 C.ar    
  11 C11           -1.0352     3.5888     0.0320 C.ar    
  12 S12           -5.1508     1.6904     0.0385 S.o2    
  13 O13           -5.8361     2.3363    -1.0257 O.2     
  14 O14           -4.8949     0.2931     0.0037 O.2     
  15 C15           -5.8634     2.1675     1.6370 C.3     
  16 F16           -4.5242     4.5849     0.0495 F       
  17 H17            1.5923    -1.4208    -0.0208 H       
  18 H18            3.1467     0.7468    -0.0237 H       
  19 H19            1.5881     2.8598     0.0019 H       
  20 H20           -2.5239     0.5514     0.0178 H       
  21 H21           -2.0659     5.4604     0.0416 H       
  22 H22           -0.0547     4.0415     0.0333 H       
  23 H23           -5.9145     3.2543     1.7021 H       
  24 H24           -6.8665     1.7505     1.7266 H       
  25 H25           -5.2373     1.7842     2.4427 H       
@<TRIPOS>BOND
   1    1    2 1
   2    1    5 1
   3    1    6 1
   4    2    3 2
   5    3    4 1
   6    3   17 1
   7    4    5 2
   8    4   18 1
   9    5   19 1
  10    6    7 ar
  11    6   11 ar
  12    7    8 ar
  13    7   20 1
  14    8    9 ar
  15    8   12 1
  16    9   10 ar
  17    9   16 1
  18   10   11 ar
  19   10   21 1
  20   11   22 1
  21   12   13 2
  22   12   14 2
  23   12   15 1
  24   15   23 1
  25   15   24 1
  26   15   25 1

#	End of record

