#	Name: ASD01911572
#	Creating user name:	WinNT
#	Creation time:	15. 06. 2019 19:58

#	Modifying user name:	WinNT
#	Modification time:	15. 06. 2019 19:58

#	Program:	/corina/corina34_cracker 3.40 0067  02.08.2006

@<TRIPOS>MOLECULE
ASD01911572
  40   42    0    0    0
SMALL
NO_CHARGES


@<TRIPOS>ATOM
   1 N1             0.0338     1.1487    -0.6956 N.am    
   2 C2             0.0021    -0.0041     0.0020 C.2     
   3 C3            -1.2505    -0.7542     0.1205 C.2     
   4 C4            -1.3859    -2.1134     0.0310 C.2     
   5 S5            -2.8469    -0.0657     0.4110 S.3     
   6 C6            -3.5481    -1.6810     0.3759 C.2     
   7 N7            -2.6013    -2.5624     0.1683 N.2     
   8 C8            -4.9364    -1.9842     0.5528 C.1     
   9 C9            -6.0746    -2.2328     0.6978 C.1     
  10 C10           -7.4629    -2.5361     0.8746 C.ar    
  11 C11           -7.9037    -3.8624     0.8262 C.ar    
  12 C12           -9.2413    -4.1475     0.9971 C.ar    
  13 C13          -10.1491    -3.1228     1.2167 C.ar    
  14 C14           -9.7185    -1.8057     1.2659 C.ar    
  15 C15           -8.3829    -1.5076     1.1022 C.ar    
  16 O16            1.0143    -0.4218     0.5336 O.2     
  17 C17           -1.1462     1.6039    -1.4433 C.3     
  18 F18          -11.4589    -3.4088     1.3831 F       
  19 C19            1.2471     1.9770    -0.7179 C.3     
  20 C20            0.8787     3.4026    -0.2949 C.3     
  21 C21           -0.2517     3.9193    -1.1880 C.3     
  22 C22           -1.4824     3.0345    -1.0106 C.3     
  23 C23           -0.5988     5.3555    -0.7910 C.3     
  24 H24           -0.5443    -2.7677    -0.1417 H       
  25 H25           -7.1977    -4.6615     0.6548 H       
  26 H26           -9.5831    -5.1713     0.9596 H       
  27 H27          -10.4307    -1.0121     1.4373 H       
  28 H28           -8.0487    -0.4813     1.1411 H       
  29 H29           -0.9310     1.5863    -2.5117 H       
  30 H30           -1.9905     0.9490    -1.2276 H       
  31 H31            1.9814     1.5682    -0.0238 H       
  32 H32            1.6618     1.9906    -1.7258 H       
  33 H33            0.5493     3.4002     0.7441 H       
  34 H34            1.7496     4.0496    -0.3995 H       
  35 H35            0.0697     3.8982    -2.2293 H       
  36 H36           -2.2960     3.4148    -1.6282 H       
  37 H37           -1.7865     3.0399     0.0361 H       
  38 H38            0.2797     5.9889    -0.9138 H       
  39 H39           -1.4039     5.7238    -1.4269 H       
  40 H40           -0.9197     5.3772     0.2505 H       
@<TRIPOS>BOND
   1    1    2 am
   2    1   19 1
   3    1   17 1
   4    2    3 1
   5    2   16 2
   6    3    4 2
   7    3    5 1
   8    4    7 1
   9    4   24 1
  10    5    6 1
  11    6    7 2
  12    6    8 1
  13    8    9 3
  14    9   10 1
  15   10   11 ar
  16   10   15 ar
  17   11   12 ar
  18   11   25 1
  19   12   13 ar
  20   12   26 1
  21   13   14 ar
  22   13   18 1
  23   14   15 ar
  24   14   27 1
  25   15   28 1
  26   17   22 1
  27   17   29 1
  28   17   30 1
  29   19   20 1
  30   19   31 1
  31   19   32 1
  32   20   21 1
  33   20   33 1
  34   20   34 1
  35   21   22 1
  36   21   23 1
  37   21   35 1
  38   22   36 1
  39   22   37 1
  40   23   38 1
  41   23   39 1
  42   23   40 1

#	End of record

