#	Name: ASD01916200
#	Creating user name:	WinNT
#	Creation time:	15. 06. 2019 20:06

#	Modifying user name:	WinNT
#	Modification time:	15. 06. 2019 20:06

#	Program:	/corina/corina34_cracker 3.40 0067  02.08.2006

@<TRIPOS>MOLECULE
ASD01916200
  39   41    0    0    0
SMALL
NO_CHARGES


@<TRIPOS>ATOM
   1 C1            -0.3867     1.7170     0.1125 C.ar    
   2 C2            -0.5135     0.3664     0.3819 C.ar    
   3 N3             0.5332    -0.3594     0.7134 N.ar    
   4 C4             1.7493     0.1669     0.8035 C.ar    
   5 C5             1.9568     1.5185     0.5474 C.ar    
   6 C6             0.8691     2.3130     0.1942 C.ar    
   7 C7            -1.8703    -0.2837     0.2949 C.3     
   8 O8             1.0291     3.6359    -0.0642 O.3     
   9 C9             2.2789     4.1598     0.0402 C.ar    
  10 C10            3.2183     3.9709    -0.9683 C.ar    
  11 N11            4.4240     4.4969    -0.8293 N.ar    
  12 C12            4.7392     5.1911     0.2457 C.ar    
  13 N13            3.8775     5.3919     1.2224 N.ar    
  14 C14            2.6499     4.9036     1.1557 C.ar    
  15 C15            2.8950    -0.6931     1.1805 C.2     
  16 N16            2.7008    -2.0031     1.4304 N.am    
  17 O17            4.0100    -0.2172     1.2646 O.2     
  18 C18            3.7917    -2.8340     1.6818 C.ar    
  19 C19            3.5959    -4.2029     1.8229 C.ar    
  20 C20            4.6868    -5.0173     2.0718 C.ar    
  21 C21            5.9427    -4.4307     2.1713 C.ar    
  22 C22            6.0631    -3.0610     2.0197 C.ar    
  23 N23            5.0043    -2.3122     1.7781 N.ar    
  24 C24           -1.8044    -1.4754    -0.6623 C.3     
  25 F25            7.0338    -5.1896     2.4138 F       
  26 H26           -1.2517     2.3023    -0.1627 H       
  27 H27            2.9462     1.9450     0.6218 H       
  28 H28           -2.1720    -0.6284     1.2840 H       
  29 H29           -2.5968     0.4397    -0.0750 H       
  30 H30            2.9669     3.4028    -1.8518 H       
  31 H31            5.7325     5.6070     0.3288 H       
  32 H32            1.9472     5.0762     1.9575 H       
  33 H33            1.8020    -2.3679     1.4353 H       
  34 H34            2.6054    -4.6253     1.7399 H       
  35 H35            4.5649    -6.0843     2.1864 H       
  36 H36            7.0366    -2.5995     2.0960 H       
  37 H37           -1.0779    -2.1989    -0.2924 H       
  38 H38           -2.7857    -1.9457    -0.7252 H       
  39 H39           -1.5027    -1.1307    -1.6514 H       
@<TRIPOS>BOND
   1    1    2 ar
   2    1    6 ar
   3    1   26 1
   4    2    3 ar
   5    2    7 1
   6    3    4 ar
   7    4    5 ar
   8    4   15 1
   9    5    6 ar
  10    5   27 1
  11    6    8 1
  12    7   24 1
  13    7   28 1
  14    7   29 1
  15    8    9 1
  16    9   10 ar
  17    9   14 ar
  18   10   11 ar
  19   10   30 1
  20   11   12 ar
  21   12   13 ar
  22   12   31 1
  23   13   14 ar
  24   14   32 1
  25   15   16 am
  26   15   17 2
  27   16   18 1
  28   16   33 1
  29   18   19 ar
  30   18   23 ar
  31   19   20 ar
  32   19   34 1
  33   20   21 ar
  34   20   35 1
  35   21   22 ar
  36   21   25 1
  37   22   23 ar
  38   22   36 1
  39   24   37 1
  40   24   38 1
  41   24   39 1

#	End of record

