#	Name: ASD00602002
#	Creating user name:	WinNT
#	Creation time:	15. 06. 2019 18:36

#	Modifying user name:	WinNT
#	Modification time:	15. 06. 2019 18:36

#	Program:	/corina/corina34_cracker 3.40 0067  02.08.2006

@<TRIPOS>MOLECULE
ASD00602002
  68   70    0    0    0
SMALL
NO_CHARGES


@<TRIPOS>ATOM
   1 C1            -0.0187     1.5270     0.0104 C.3     
   2 C2             0.0021    -0.0041     0.0020 C.3     
   3 C3            -1.4335    -0.5293     0.0744 C.3     
   4 N4            -2.0748    -0.0373     1.3005 N.3     
   5 C5            -2.1488     1.4293     1.3093 C.3     
   6 C6            -0.7345     2.0129     1.2737 C.3     
   7 N7             1.3553     2.0353     0.0000 N.am    
   8 C8             1.8117     2.8903    -1.0985 C.3     
   9 C9             1.5481     4.3336    -0.7546 C.2     
  10 C10            2.4383     5.0926    -0.1136 C.2     
  11 S11            1.7825     6.7092     0.1104 S.3     
  12 C12            0.2923     6.2498    -0.7030 C.2     
  13 C13            0.3661     4.9739    -1.0850 C.2     
  14 C14            2.1994     1.7163     1.0012 C.2     
  15 N15            3.4634     2.1840     0.9916 N.am    
  16 O16            1.8206     1.0067     1.9129 O.2     
  17 C17           -3.4066    -0.6327     1.4733 C.3     
  18 C18           -3.9902    -0.1952     2.8183 C.3     
  19 C19           -4.3250    -0.1649     0.3425 C.3     
  20 C20           -3.1400    -0.7685     3.9538 C.3     
  21 N21           -3.6988    -0.3496     5.2416 N.am    
  22 C22           -3.1106    -0.7388     6.3901 C.2     
  23 C23           -3.6743    -0.3162     7.6892 C.ar    
  24 O24           -2.1163    -1.4375     6.3573 O.2     
  25 C25           -3.2544     0.8698     8.2921 C.ar    
  26 N26           -3.7562     1.2471     9.4498 N.ar    
  27 C27           -4.6663     0.5292    10.0821 C.ar    
  28 C28           -5.1348    -0.6608     9.5490 C.ar    
  29 C29           -4.6432    -1.0970     8.3327 C.ar    
  30 C30           -5.1281    -2.3859     7.7206 C.3     
  31 C31           -2.2172     1.7265     7.6129 C.3     
  32 Cl32          -5.2852     1.0849    11.6058 Cl      
  33 O33            4.3502     1.8489     2.0434 O.3     
  34 C34            5.6559     2.4128     1.9046 C.3     
  35 H35           -0.5477     1.8889    -0.8712 H       
  36 H36            0.4727    -0.3566    -0.9158 H       
  37 H37            0.5655    -0.3651     0.8624 H       
  38 H38           -1.9925    -0.1792    -0.7934 H       
  39 H39           -1.4215    -1.6192     0.0830 H       
  40 H40           -2.7044     1.7701     0.4357 H       
  41 H41           -2.6563     1.7619     2.2148 H       
  42 H42           -0.1827     1.6836     2.1542 H       
  43 H43           -0.7902     3.1015     1.2645 H       
  44 H44            2.8805     2.7431    -1.2536 H       
  45 H45            1.2731     2.6297    -2.0096 H       
  46 H46            3.4125     4.7645     0.2175 H       
  47 H47           -0.5516     6.9023    -0.8716 H       
  48 H48           -0.4385     4.4759    -1.6055 H       
  49 H49            3.7656     2.7501     0.2642 H       
  50 H50           -3.3248    -1.7193     1.4490 H       
  51 H51           -3.9896     0.8932     2.8778 H       
  52 H52           -5.0122    -0.5634     2.9079 H       
  53 H53           -3.9092    -0.4766    -0.6157 H       
  54 H54           -5.3132    -0.6067     0.4707 H       
  55 H55           -4.4068     0.9217     0.3668 H       
  56 H56           -3.1406    -1.8569     3.8943 H       
  57 H57           -2.1180    -0.4003     3.8641 H       
  58 H58           -4.4922     0.2079     5.2678 H       
  59 H59           -5.8792    -1.2392    10.0759 H       
  60 H60           -5.9923    -2.1849     7.0874 H       
  61 H61           -4.3317    -2.8251     7.1198 H       
  62 H62           -5.4111    -3.0801     8.5120 H       
  63 H63           -2.7111     2.4455     6.9593 H       
  64 H64           -1.6363     2.2592     8.3658 H       
  65 H65           -1.5540     1.0945     7.0224 H       
  66 H66            6.1078     2.0590     0.9779 H       
  67 H67            5.5815     3.4999     1.8807 H       
  68 H68            6.2744     2.1094     2.7493 H       
@<TRIPOS>BOND
   1    1    2 1
   2    1    7 1
   3    1    6 1
   4    1   35 1
   5    2    3 1
   6    2   36 1
   7    2   37 1
   8    3    4 1
   9    3   38 1
  10    3   39 1
  11    4    5 1
  12    4   17 1
  13    5    6 1
  14    5   40 1
  15    5   41 1
  16    6   42 1
  17    6   43 1
  18    7    8 1
  19    7   14 am
  20    8    9 1
  21    8   44 1
  22    8   45 1
  23    9   10 2
  24    9   13 1
  25   10   11 1
  26   10   46 1
  27   11   12 1
  28   12   13 2
  29   12   47 1
  30   13   48 1
  31   14   15 am
  32   14   16 2
  33   15   33 1
  34   15   49 1
  35   17   18 1
  36   17   19 1
  37   17   50 1
  38   18   20 1
  39   18   51 1
  40   18   52 1
  41   19   53 1
  42   19   54 1
  43   19   55 1
  44   20   21 1
  45   20   56 1
  46   20   57 1
  47   21   22 am
  48   21   58 1
  49   22   23 1
  50   22   24 2
  51   23   25 ar
  52   23   29 ar
  53   25   26 ar
  54   25   31 1
  55   26   27 ar
  56   27   28 ar
  57   27   32 1
  58   28   29 ar
  59   28   59 1
  60   29   30 1
  61   30   60 1
  62   30   61 1
  63   30   62 1
  64   31   63 1
  65   31   64 1
  66   31   65 1
  67   33   34 1
  68   34   66 1
  69   34   67 1
  70   34   68 1

#	End of record

