#	Name: ASD01914221
#	Creating user name:	WinNT
#	Creation time:	15. 06. 2019 20:03

#	Modifying user name:	WinNT
#	Modification time:	15. 06. 2019 20:03

#	Program:	/corina/corina34_cracker 3.40 0067  02.08.2006

@<TRIPOS>MOLECULE
ASD01914221
  33   34    0    0    0
SMALL
NO_CHARGES


@<TRIPOS>ATOM
   1 C1            -0.0465     1.4850     0.2240 C.2     
   2 C2            -0.0457    -0.0219     0.2060 C.3     
   3 C3             1.3742    -0.5341     0.4559 C.3     
   4 C4             1.3750    -2.0060     0.4382 C.1     
   5 C5             1.3757    -3.1799     0.4241 C.1     
   6 O6             0.9868     2.0897     0.4177 O.2     
   7 N7            -1.1946     2.1607     0.0195 N.am    
   8 C8             1.3765    -4.6118     0.4070 C.ar    
   9 C9             2.5692    -5.3060     0.6137 C.ar    
  10 C10            2.5535    -6.6893     0.5941 C.ar    
  11 C11            1.3458    -7.3355     0.3685 C.ar    
  12 C12            0.2011    -6.5854     0.1711 C.ar    
  13 N13            0.2412    -5.2690     0.1998 N.ar    
  14 C14           -1.2153     3.5552     0.1328 C.ar    
  15 C15           -0.1180     4.3027    -0.2744 C.ar    
  16 C16           -0.1418     5.6799    -0.1611 C.ar    
  17 C17           -1.2578     6.3135     0.3576 C.ar    
  18 C18           -2.3511     5.5712     0.7635 C.ar    
  19 C19           -2.3353     4.1948     0.6473 C.ar    
  20 Cl20           1.2293     6.6158    -0.6691 Cl      
  21 H21           -0.7091    -0.3950     0.9862 H       
  22 H22           -0.3932    -0.3738    -0.7654 H       
  23 H23            2.0376    -0.1610    -0.3244 H       
  24 H24            1.7217    -0.1822     1.4272 H       
  25 H25           -2.0065     1.6803    -0.2063 H       
  26 H26            3.4914    -4.7712     0.7861 H       
  27 H27            3.4607    -7.2539     0.7506 H       
  28 H28            1.3007    -8.4143     0.3469 H       
  29 H29           -0.7397    -7.0858    -0.0050 H       
  30 H30            0.7529     3.8084    -0.6788 H       
  31 H31           -1.2744     7.3897     0.4457 H       
  32 H32           -3.2203     6.0683     1.1681 H       
  33 H33           -3.1918     3.6162     0.9605 H       
@<TRIPOS>BOND
   1    1    2 1
   2    1    6 2
   3    1    7 am
   4    2    3 1
   5    2   21 1
   6    2   22 1
   7    3    4 1
   8    3   23 1
   9    3   24 1
  10    4    5 3
  11    5    8 1
  12    7   14 1
  13    7   25 1
  14    8    9 ar
  15    8   13 ar
  16    9   10 ar
  17    9   26 1
  18   10   11 ar
  19   10   27 1
  20   11   12 ar
  21   11   28 1
  22   12   13 ar
  23   12   29 1
  24   14   15 ar
  25   14   19 ar
  26   15   16 ar
  27   15   30 1
  28   16   17 ar
  29   16   20 1
  30   17   18 ar
  31   17   31 1
  32   18   19 ar
  33   18   32 1
  34   19   33 1

#	End of record

