#	Name: ASD02500572
#	Creating user name:	WinNT
#	Creation time:	15. 06. 2019 20:23

#	Modifying user name:	WinNT
#	Modification time:	15. 06. 2019 20:23

#	Program:	/corina/corina34_cracker 3.40 0067  02.08.2006

@<TRIPOS>MOLECULE
ASD02500572
  64   68    0    0    0
SMALL
NO_CHARGES


@<TRIPOS>ATOM
   1 N1             1.7627     4.1955    -0.8544 N.ar    
   2 C2             2.6976     3.9798     0.0387 C.ar    
   3 C3             3.8861     3.3291    -0.2863 C.ar    
   4 C4             4.0993     2.8973    -1.5643 C.ar    
   5 C5             3.0928     3.1302    -2.5207 C.ar    
   6 C6             3.2410     2.7157    -3.8538 C.ar    
   7 C7             2.2445     2.9601    -4.7492 C.ar    
   8 C8             1.0791     3.6169    -4.3601 C.ar    
   9 C9             0.9024     4.0323    -3.0761 C.ar    
  10 C10            1.9083     3.7984    -2.1226 C.ar    
  11 S11           -0.5813     4.8613    -2.6111 S.o2    
  12 O12           -0.1841     6.0372    -1.9194 O.2     
  13 O13           -1.4088     4.8811    -3.7662 O.2     
  14 N14           -1.3509     3.9032    -1.5011 N.am    
  15 C15           -1.8787     2.6750    -1.8888 C.ar    
  16 C16           -3.0392     2.1942    -1.2839 C.ar    
  17 C17           -3.5632     0.9789    -1.6662 C.ar    
  18 C18           -2.9295     0.2285    -2.6616 C.ar    
  19 C19           -1.7665     0.7141    -3.2652 C.ar    
  20 C20           -1.2505     1.9322    -2.8830 C.ar    
  21 C21           -3.4873    -1.0737    -3.0733 C.2     
  22 O22           -3.4969    -1.3869    -4.2482 O.2     
  23 N23           -3.9864    -1.9161    -2.1472 N.am    
  24 C24           -4.4636    -3.2554    -2.5240 C.3     
  25 C25           -3.8011    -4.2852    -1.6027 C.3     
  26 N26           -4.0417    -3.9113    -0.2026 N.3     
  27 C27           -3.4215    -2.6188     0.1179 C.3     
  28 C28           -4.0627    -1.5229    -0.7320 C.3     
  29 C29           -3.5721    -4.9615     0.7109 C.3     
  30 C30           -3.6067    -4.4477     2.1272 C.ar    
  31 C31           -4.7450    -4.6116     2.8943 C.ar    
  32 C32           -4.7767    -4.1403     4.1934 C.ar    
  33 C33           -3.6702    -3.5053     4.7256 C.ar    
  34 C34           -2.5316    -3.3422     3.9588 C.ar    
  35 C35           -2.4983    -3.8174     2.6611 C.ar    
  36 C36           -3.7052    -2.9906     6.1415 C.3     
  37 F37           -3.2590    -3.9905     7.0124 F       
  38 F38           -2.8733    -1.8712     6.2515 F       
  39 F39           -5.0157    -2.6323     6.4752 F       
  40 F40           -3.6499     2.9204    -0.3222 F       
  41 H41            2.5428     4.3158     1.0534 H       
  42 H42            4.6381     3.1666     0.4716 H       
  43 H43            5.0147     2.3915    -1.8338 H       
  44 H44            4.1402     2.2064    -4.1675 H       
  45 H45            2.3593     2.6409    -5.7745 H       
  46 H46            0.3036     3.7995    -5.0891 H       
  47 H47           -1.4338     4.1979    -0.5807 H       
  48 H48           -4.4620     0.6061    -1.1975 H       
  49 H49           -1.2753     0.1365    -4.0341 H       
  50 H50           -0.3543     2.3095    -3.3531 H       
  51 H51           -5.5464    -3.3041    -2.4089 H       
  52 H52           -4.1929    -3.4626    -3.5593 H       
  53 H53           -4.2257    -5.2707    -1.7941 H       
  54 H54           -2.7283    -4.3075    -1.7940 H       
  55 H55           -3.5707    -2.3957     1.1743 H       
  56 H56           -2.3539    -2.6643    -0.0974 H       
  57 H57           -3.5271    -0.5853    -0.5831 H       
  58 H58           -5.1062    -1.4019    -0.4413 H       
  59 H59           -4.2197    -5.8340     0.6250 H       
  60 H60           -2.5510    -5.2398     0.4503 H       
  61 H61           -5.6095    -5.1077     2.4785 H       
  62 H62           -5.6663    -4.2678     4.7925 H       
  63 H63           -1.6672    -2.8458     4.3744 H       
  64 H64           -1.6075    -3.6932     2.0632 H       
@<TRIPOS>BOND
   1    1    2 ar
   2    1   10 ar
   3    2    3 ar
   4    2   41 1
   5    3    4 ar
   6    3   42 1
   7    4    5 ar
   8    4   43 1
   9    5    6 ar
  10    5   10 ar
  11    6    7 ar
  12    6   44 1
  13    7    8 ar
  14    7   45 1
  15    8    9 ar
  16    8   46 1
  17    9   10 ar
  18    9   11 1
  19   11   12 2
  20   11   13 2
  21   11   14 am
  22   14   15 1
  23   14   47 1
  24   15   16 ar
  25   15   20 ar
  26   16   17 ar
  27   16   40 1
  28   17   18 ar
  29   17   48 1
  30   18   19 ar
  31   18   21 1
  32   19   20 ar
  33   19   49 1
  34   20   50 1
  35   21   22 2
  36   21   23 am
  37   23   24 1
  38   23   28 1
  39   24   25 1
  40   24   51 1
  41   24   52 1
  42   25   26 1
  43   25   53 1
  44   25   54 1
  45   26   27 1
  46   26   29 1
  47   27   28 1
  48   27   55 1
  49   27   56 1
  50   28   57 1
  51   28   58 1
  52   29   30 1
  53   29   59 1
  54   29   60 1
  55   30   31 ar
  56   30   35 ar
  57   31   32 ar
  58   31   61 1
  59   32   33 ar
  60   32   62 1
  61   33   34 ar
  62   33   36 1
  63   34   35 ar
  64   34   63 1
  65   35   64 1
  66   36   37 1
  67   36   38 1
  68   36   39 1

#	End of record

