#	Name: ASD00191017
#	Creating user name:	WinNT
#	Creation time:	15. 06. 2019 18:33

#	Modifying user name:	WinNT
#	Modification time:	15. 06. 2019 18:33

#	Program:	/corina/corina34_cracker 3.40 0067  02.08.2006

@<TRIPOS>MOLECULE
ASD00191017
  43   46    0    0    0
SMALL
NO_CHARGES


@<TRIPOS>ATOM
   1 C1             0.5582     1.4299     1.1283 C.ar    
   2 C2             0.5241    -0.0475     1.1038 C.2     
   3 O3             1.5601    -0.6804     1.1630 O.2     
   4 N4            -0.6558    -0.6929     1.0158 N.am    
   5 N5            -0.7233    -4.8132     0.4113 N.ar    
   6 C6             0.3113    -4.1020     0.0089 C.ar    
   7 C7             0.3667    -2.7171     0.1948 C.ar    
   8 C8            -0.6825    -2.0687     0.8155 C.ar    
   9 C9            -1.7873    -2.8469     1.2429 C.ar    
  10 C10           -2.8876    -2.2584     1.8793 C.ar    
  11 C11           -3.9334    -3.0377     2.2767 C.ar    
  12 C12           -3.9215    -4.4121     2.0578 C.ar    
  13 C13           -2.8668    -5.0155     1.4423 C.ar    
  14 C14           -1.7717    -4.2439     1.0189 C.ar    
  15 N15            1.3721    -4.7439    -0.6155 N.pl3   
  16 C16            1.4459    -6.1396    -0.6089 C.ar    
  17 C17            2.6777    -6.7721    -0.7201 C.ar    
  18 C18            2.7471    -8.1513    -0.7128 C.ar    
  19 C19            1.5922    -8.9027    -0.5954 C.ar    
  20 C20            0.3643    -8.2763    -0.4845 C.ar    
  21 C21            0.2883    -6.8974    -0.4853 C.ar    
  22 C22            1.7786     2.1016     1.2194 C.ar    
  23 C23            1.8034     3.4807     1.2418 C.ar    
  24 C24            0.6222     4.1981     1.1748 C.ar    
  25 C25           -0.5908     3.5386     1.0849 C.ar    
  26 C26           -0.6294     2.1600     1.0547 C.ar    
  27 H27           -1.4864    -0.1977     1.0922 H       
  28 H28            1.2263    -2.1578    -0.1440 H       
  29 H29           -2.9074    -1.1929     2.0545 H       
  30 H30           -4.7812    -2.5830     2.7675 H       
  31 H31           -4.7612    -5.0094     2.3813 H       
  32 H32           -2.8724    -6.0832     1.2801 H       
  33 H33            2.0621    -4.2238    -1.0564 H       
  34 H34            3.5800    -6.1858    -0.8126 H       
  35 H35            3.7045    -8.6437    -0.7992 H       
  36 H36            1.6492    -9.9812    -0.5906 H       
  37 H37           -0.5358    -8.8661    -0.3933 H       
  38 H38           -0.6705    -6.4087    -0.3942 H       
  39 H39            2.7013     1.5427     1.2725 H       
  40 H40            2.7469     4.0015     1.3122 H       
  41 H41            0.6471     5.2776     1.1931 H       
  42 H42           -1.5093     4.1046     1.0336 H       
  43 H43           -1.5768     1.6464     0.9841 H       
@<TRIPOS>BOND
   1    1    2 1
   2    1   22 ar
   3    1   26 ar
   4    2    3 2
   5    2    4 am
   6    4    8 1
   7    4   27 1
   8    5    6 ar
   9    5   14 ar
  10    6    7 ar
  11    6   15 1
  12    7    8 ar
  13    7   28 1
  14    8    9 ar
  15    9   10 ar
  16    9   14 ar
  17   10   11 ar
  18   10   29 1
  19   11   12 ar
  20   11   30 1
  21   12   13 ar
  22   12   31 1
  23   13   14 ar
  24   13   32 1
  25   15   16 1
  26   15   33 1
  27   16   17 ar
  28   16   21 ar
  29   17   18 ar
  30   17   34 1
  31   18   19 ar
  32   18   35 1
  33   19   20 ar
  34   19   36 1
  35   20   21 ar
  36   20   37 1
  37   21   38 1
  38   22   23 ar
  39   22   39 1
  40   23   24 ar
  41   23   40 1
  42   24   25 ar
  43   24   41 1
  44   25   26 ar
  45   25   42 1
  46   26   43 1

#	End of record

