#	Name: ASD06340003
#	Creating user name:	WinNT
#	Creation time:	15. 06. 2019 21:05

#	Modifying user name:	WinNT
#	Modification time:	15. 06. 2019 21:05

#	Program:	/corina/corina34_cracker 3.40 0067  02.08.2006

@<TRIPOS>MOLECULE
ASD06340003
  34   35    0    0    0
SMALL
NO_CHARGES


@<TRIPOS>ATOM
   1 N1            -0.0159     1.3206     0.0093 N.am    
   2 C2             0.0021    -0.0041     0.0020 C.2     
   3 N3             1.2079    -0.5931    -0.0127 N.am    
   4 S4             2.3479     0.6655    -0.0168 S.3     
   5 C5             1.1811     1.9312     0.0012 C.2     
   6 C6            -1.2703     2.0773     0.0195 C.3     
   7 C7             1.4848    -2.0317    -0.0226 C.3     
   8 C8             1.4439    -2.5490    -1.4619 C.3     
   9 O9            -1.0257    -0.6556     0.0087 O.2     
  10 O10            1.3957     3.1293     0.0049 O.2     
  11 C11           -1.6936     2.3291     1.4437 C.ar    
  12 C12           -1.2693     3.4696     2.0995 C.ar    
  13 C13           -1.6575     3.7005     3.4060 C.ar    
  14 C14           -2.4704     2.7911     4.0565 C.ar    
  15 C15           -2.8954     1.6510     3.4004 C.ar    
  16 C16           -2.5107     1.4222     2.0925 C.ar    
  17 C17            1.7331    -4.0514    -1.4723 C.3     
  18 C18            1.6921    -4.5687    -2.9116 C.3     
  19 H19           -1.1242     3.0298    -0.4899 H       
  20 H20           -2.0436     1.5057    -0.4937 H       
  21 H21            2.4723    -2.2145     0.4012 H       
  22 H22            0.7327    -2.5506     0.5716 H       
  23 H23            0.4564    -2.3662    -1.8857 H       
  24 H24            2.1960    -2.0301    -2.0561 H       
  25 H25           -0.6343     4.1801     1.5913 H       
  26 H26           -1.3255     4.5912     3.9186 H       
  27 H27           -2.7731     2.9711     5.0775 H       
  28 H28           -3.5301     0.9403     3.9087 H       
  29 H29           -2.8427     0.5315     1.5799 H       
  30 H30            2.7205    -4.2342    -1.0485 H       
  31 H31            0.9809    -4.5703    -0.8781 H       
  32 H32            1.8981    -5.6390    -2.9190 H       
  33 H33            0.7046    -4.3859    -3.3354 H       
  34 H34            2.4443    -4.0498    -3.5058 H       
@<TRIPOS>BOND
   1    1    2 am
   2    1    5 am
   3    1    6 1
   4    2    3 am
   5    2    9 2
   6    3    4 1
   7    3    7 1
   8    4    5 1
   9    5   10 2
  10    6   11 1
  11    6   19 1
  12    6   20 1
  13    7    8 1
  14    7   21 1
  15    7   22 1
  16    8   17 1
  17    8   23 1
  18    8   24 1
  19   11   12 ar
  20   11   16 ar
  21   12   13 ar
  22   12   25 1
  23   13   14 ar
  24   13   26 1
  25   14   15 ar
  26   14   27 1
  27   15   16 ar
  28   15   28 1
  29   16   29 1
  30   17   18 1
  31   17   30 1
  32   17   31 1
  33   18   32 1
  34   18   33 1
  35   18   34 1

#	End of record

