#	Name: ASD03092789
#	Creating user name:	WinNT
#	Creation time:	15. 06. 2019 20:33

#	Modifying user name:	WinNT
#	Modification time:	15. 06. 2019 20:33

#	Program:	/corina/corina34_cracker 3.40 0067  02.08.2006

@<TRIPOS>MOLECULE
ASD03092789
  62   64    0    0    0
SMALL
NO_CHARGES


@<TRIPOS>ATOM
   1 C1            -0.0187     1.5258     0.0104 C.3     
   2 C2             0.0021    -0.0041     0.0020 C.3     
   3 C3             0.7421    -0.5109     1.2415 C.3     
   4 C4            -1.4333    -0.5336     0.0129 C.3     
   5 C5            -1.4159    -2.0348    -0.1192 C.2     
   6 O6            -0.3595    -2.6231    -0.2128 O.2     
   7 N7            -2.5744    -2.7235    -0.1333 N.am    
   8 C8            -2.5575    -4.1827    -0.2617 C.3     
   9 C9            -3.9713    -4.7043    -0.2510 C.ar    
  10 C10           -4.5018    -5.2336     0.9052 C.ar    
  11 C11           -5.8065    -5.7161     0.9171 C.ar    
  12 C12           -6.5793    -5.6656    -0.2367 C.ar    
  13 C13           -6.0529    -5.1358    -1.3982 C.ar    
  14 F14           -6.8038    -5.0865    -2.5203 F       
  15 C15           -4.7450    -4.6463    -1.4098 C.ar    
  16 C16           -4.1782    -4.0717    -2.6531 C.ar    
  17 C17           -3.8216    -2.7212    -2.7228 C.ar    
  18 C18           -3.2972    -2.2277    -3.8991 C.ar    
  19 C19           -2.9083    -0.7745    -3.9877 C.3     
  20 N20           -3.1309    -3.0111    -4.9479 N.ar    
  21 C21           -3.4542    -4.2902    -4.9240 C.ar    
  22 C22           -3.2403    -5.1342    -6.1540 C.3     
  23 C23           -3.9799    -4.8665    -3.7865 C.ar    
  24 N24           -6.3397    -6.2520     2.0891 N.3     
  25 C25           -5.5058    -7.3533     2.5920 C.3     
  26 C26           -6.0930    -7.8714     3.9075 C.3     
  27 O27           -7.4487    -8.2732     3.6931 O.3     
  28 C28           -8.2894    -7.2247     3.2039 C.3     
  29 H29           -8.3223    -6.4146     3.9324 H       
  30 C30           -7.7244    -6.7001     1.8812 C.3     
  31 C31           -9.7024    -7.7662     2.9779 C.3     
  32 F32          -10.2155    -8.2492     4.1864 F       
  33 F33          -10.5241    -6.7400     2.4993 F       
  34 F34           -9.6596    -8.8045     2.0412 F       
  35 H35            1.0039     1.9031     0.0027 H       
  36 H36           -0.5459     1.8868    -0.8726 H       
  37 H37           -0.5289     1.8773     0.9072 H       
  38 H38            0.5123    -0.3556    -0.8948 H       
  39 H39            0.2319    -0.1594     2.1383 H       
  40 H40            0.7568    -1.6008     1.2356 H       
  41 H41            1.7647    -0.1336     1.2338 H       
  42 H42           -1.9156    -0.2570     0.9504 H       
  43 H43           -1.9862    -0.1019    -0.8214 H       
  44 H44           -3.4193    -2.2529    -0.0584 H       
  45 H45           -2.0752    -4.4594    -1.1992 H       
  46 H46           -2.0046    -4.6145     0.5726 H       
  47 H47           -3.9037    -5.2743     1.8036 H       
  48 H48           -7.5918    -6.0412    -0.2250 H       
  49 H49           -3.9553    -2.0743    -1.8684 H       
  50 H50           -1.8678    -0.6577    -3.6849 H       
  51 H51           -3.0292    -0.4279    -5.0140 H       
  52 H52           -3.5468    -0.1867    -3.3281 H       
  53 H53           -2.2420    -5.5709    -6.1259 H       
  54 H54           -3.9844    -5.9302    -6.1824 H       
  55 H55           -3.3398    -4.5119    -7.0434 H       
  56 H56           -4.2380    -5.9151    -3.7725 H       
  57 H57           -5.4873    -8.1599     1.8590 H       
  58 H58           -4.4914    -6.9929     2.7631 H       
  59 H59           -5.5110    -8.7251     4.2547 H       
  60 H60           -6.0620    -7.0801     4.6565 H       
  61 H61           -8.3296    -5.8628     1.5335 H       
  62 H62           -7.7414    -7.4962     1.1368 H       
@<TRIPOS>BOND
   1    1    2 1
   2    1   35 1
   3    1   36 1
   4    1   37 1
   5    2    3 1
   6    2    4 1
   7    2   38 1
   8    3   39 1
   9    3   40 1
  10    3   41 1
  11    4    5 1
  12    4   42 1
  13    4   43 1
  14    5    6 2
  15    5    7 am
  16    7    8 1
  17    7   44 1
  18    8    9 1
  19    8   45 1
  20    8   46 1
  21    9   15 ar
  22    9   10 ar
  23   10   11 ar
  24   10   47 1
  25   11   12 ar
  26   11   24 1
  27   12   13 ar
  28   12   48 1
  29   13   14 1
  30   13   15 ar
  31   15   16 1
  32   16   23 ar
  33   16   17 ar
  34   17   18 ar
  35   17   49 1
  36   18   19 1
  37   18   20 ar
  38   19   50 1
  39   19   51 1
  40   19   52 1
  41   20   21 ar
  42   21   22 1
  43   21   23 ar
  44   22   53 1
  45   22   54 1
  46   22   55 1
  47   23   56 1
  48   24   30 1
  49   24   25 1
  50   25   26 1
  51   25   57 1
  52   25   58 1
  53   26   27 1
  54   26   59 1
  55   26   60 1
  56   27   28 1
  57   28   29 1
  58   28   30 1
  59   28   31 1
  60   30   61 1
  61   30   62 1
  62   31   32 1
  63   31   33 1
  64   31   34 1

#	End of record

