#	Name: ASD01914704
#	Creating user name:	WinNT
#	Creation time:	15. 06. 2019 20:04

#	Modifying user name:	WinNT
#	Modification time:	15. 06. 2019 20:04

#	Program:	/corina/corina34_cracker 3.40 0067  02.08.2006

@<TRIPOS>MOLECULE
ASD01914704
  48   51    0    0    0
SMALL
NO_CHARGES


@<TRIPOS>ATOM
   1 C1            -0.0187     1.5258     0.0104 C.3     
   2 C2             0.0021    -0.0041     0.0020 C.3     
   3 C3             0.7421    -0.5109     1.2415 C.3     
   4 C4             2.1775     0.0187     1.2307 C.3     
   5 C5             2.1567     1.5485     1.2391 C.3     
   6 C6             1.4167     2.0553    -0.0004 C.3     
   7 C7            -1.3789    -0.5136     0.0125 C.1     
   8 C8            -2.4803    -0.9199     0.0208 C.1     
   9 C9            -3.8237    -1.4156     0.0310 C.ar    
  10 C10           -4.0734    -2.7881     0.0260 C.ar    
  11 N11           -5.3090    -3.2442     0.0358 N.ar    
  12 C12           -6.3502    -2.4346     0.0505 C.ar    
  13 C13           -6.1866    -1.0610     0.0564 C.ar    
  14 C14           -4.9083    -0.5312     0.0520 C.ar    
  15 C15           -7.3878    -0.1512     0.0733 C.3     
  16 C16           -7.9564    -0.0319     1.5004 C.3     
  17 O17           -9.3089    -0.5617     1.3867 O.3     
  18 C18           -9.5354    -0.9390     0.1234 C.2     
  19 N19           -8.4938    -0.7414    -0.6962 N.am    
  20 O20          -10.5891    -1.4175    -0.2469 O.2     
  21 C21           -7.9889     1.4101     1.9373 C.ar    
  22 C22           -9.1434     2.1530     1.7821 C.ar    
  23 C23           -9.1731     3.4781     2.1831 C.ar    
  24 C24           -8.0462     4.0582     2.7398 C.ar    
  25 C25           -6.8917     3.3147     2.8959 C.ar    
  26 C26           -6.8635     1.9887     2.4994 C.ar    
  27 F27           -5.7350     1.2618     2.6524 F       
  28 F28          -10.3017     4.2049     2.0306 F       
  29 H29           -0.5459     1.8868    -0.8726 H       
  30 H30           -0.5289     1.8773     0.9072 H       
  31 H31            0.5123    -0.3556    -0.8948 H       
  32 H32            0.2319    -0.1594     2.1383 H       
  33 H33            0.7568    -1.6008     1.2356 H       
  34 H34            2.7046    -0.3424     2.1137 H       
  35 H35            2.6876    -0.3328     0.3339 H       
  36 H36            1.6465     1.9000     2.1359 H       
  37 H37            3.1793     1.9258     1.2314 H       
  38 H38            1.9269     1.7038    -0.8972 H       
  39 H39            1.4019     3.1452     0.0056 H       
  40 H40           -3.2464    -3.4826     0.0136 H       
  41 H41           -7.3467    -2.8509     0.0578 H       
  42 H42           -4.7516     0.5373     0.0567 H       
  43 H43           -7.1276     0.8321    -0.3187 H       
  44 H44           -7.3690    -0.6300     2.1970 H       
  45 H45           -8.4726    -0.9532    -1.6426 H       
  46 H46          -10.0225     1.7005     1.3478 H       
  47 H47           -8.0692     5.0919     3.0519 H       
  48 H48           -6.0124     3.7674     3.3299 H       
@<TRIPOS>BOND
   1    1    2 1
   2    1    6 1
   3    1   29 1
   4    1   30 1
   5    2    3 1
   6    2    7 1
   7    2   31 1
   8    3    4 1
   9    3   32 1
  10    3   33 1
  11    4    5 1
  12    4   34 1
  13    4   35 1
  14    5    6 1
  15    5   36 1
  16    5   37 1
  17    6   38 1
  18    6   39 1
  19    7    8 3
  20    8    9 1
  21    9   10 ar
  22    9   14 ar
  23   10   11 ar
  24   10   40 1
  25   11   12 ar
  26   12   13 ar
  27   12   41 1
  28   13   14 ar
  29   13   15 1
  30   14   42 1
  31   15   16 1
  32   15   19 1
  33   15   43 1
  34   16   17 1
  35   16   21 1
  36   16   44 1
  37   17   18 1
  38   18   19 am
  39   18   20 2
  40   19   45 1
  41   21   22 ar
  42   21   26 ar
  43   22   23 ar
  44   22   46 1
  45   23   24 ar
  46   23   28 1
  47   24   25 ar
  48   24   47 1
  49   25   26 ar
  50   25   48 1
  51   26   27 1

#	End of record

