#	Name: ASD01770007
#	Creating user name:	WinNT
#	Creation time:	15. 06. 2019 19:23

#	Modifying user name:	WinNT
#	Modification time:	15. 06. 2019 19:23

#	Program:	/corina/corina34_cracker 3.40 0067  02.08.2006

@<TRIPOS>MOLECULE
ASD01770007
  36   37    0    0    0
SMALL
NO_CHARGES


@<TRIPOS>ATOM
   1 O1            -0.0173     1.4248     0.0099 O.3     
   2 C2             0.0021    -0.0041     0.0020 C.3     
   3 C3             0.6933    -0.4966    -1.2721 C.3     
   4 C4             2.1083     0.0868    -1.3342 C.3     
   5 C5             2.0216     1.6150    -1.2734 C.3     
   6 C6             1.2791     2.0260     0.0007 C.3     
   7 O7            -0.0503    -0.0686    -2.4148 O.3     
   8 O8             2.7351    -0.3082    -2.5561 O.3     
   9 O9             3.3393     2.1677    -1.2576 O.3     
  10 S10            1.1090     3.8314     0.0461 S.3     
  11 C11            0.5163     4.1328     1.6778 C.ar    
  12 C12            0.2596     5.4331     2.0967 C.ar    
  13 C13           -0.2047     5.6654     3.3759 C.ar    
  14 C14           -0.4141     4.6062     4.2405 C.ar    
  15 C15           -0.1599     3.3113     3.8273 C.ar    
  16 C16            0.2989     3.0708     2.5471 C.ar    
  17 N17            0.4843     6.5671     1.1726 N.pl3   
  18 O18            0.2591     7.7062     1.5404 O.2     
  19 O19            0.8943     6.3613     0.0443 O.2     
  20 C20            0.7674    -0.5107     1.2262 C.3     
  21 O21            0.0596    -0.1489     2.4137 O.3     
  22 H22           -1.0201    -0.3816     0.0302 H       
  23 H23            0.7484    -1.5852    -1.2590 H       
  24 H24            2.6910    -0.2792    -0.4889 H       
  25 H25            1.4822     1.9842    -2.1456 H       
  26 H26            1.8410     1.6916     0.8728 H       
  27 H27            0.3312    -0.3462    -3.2589 H       
  28 H28            3.6359     0.0268    -2.6623 H       
  29 H29            3.3602     3.1337    -1.2195 H       
  30 H30           -0.4044     6.6755     3.7020 H       
  31 H31           -0.7767     4.7910     5.2409 H       
  32 H32           -0.3241     2.4868     4.5052 H       
  33 H33            0.4930     2.0588     2.2235 H       
  34 H34            0.8589    -1.5956     1.1741 H       
  35 H35            1.7609    -0.0628     1.2446 H       
  36 H36            0.4882    -0.4386     3.2307 H       
@<TRIPOS>BOND
   1    1    2 1
   2    1    6 1
   3    2    3 1
   4    2   20 1
   5    2   22 1
   6    3    4 1
   7    3    7 1
   8    3   23 1
   9    4    5 1
  10    4    8 1
  11    4   24 1
  12    5    9 1
  13    5    6 1
  14    5   25 1
  15    6   10 1
  16    6   26 1
  17    7   27 1
  18    8   28 1
  19    9   29 1
  20   10   11 1
  21   11   12 ar
  22   11   16 ar
  23   12   13 ar
  24   12   17 1
  25   13   14 ar
  26   13   30 1
  27   14   15 ar
  28   14   31 1
  29   15   16 ar
  30   15   32 1
  31   16   33 1
  32   17   18 2
  33   17   19 2
  34   20   21 1
  35   20   34 1
  36   20   35 1
  37   21   36 1

#	End of record

