#	Name: ASD00172004
#	Creating user name:	WinNT
#	Creation time:	15. 06. 2019 18:33

#	Modifying user name:	WinNT
#	Modification time:	15. 06. 2019 18:33

#	Program:	/corina/corina34_cracker 3.40 0067  02.08.2006

@<TRIPOS>MOLECULE
ASD00172004
  46   48    0    0    0
SMALL
NO_CHARGES


@<TRIPOS>ATOM
   1 C1            -0.0159     1.3224     0.0093 C.2     
   2 C2             0.0021    -0.0041     0.0020 C.2     
   3 C3            -1.3526    -0.5604    -0.0848 C.2     
   4 C4            -2.3365     0.3819    -0.0773 C.2     
   5 S5            -1.6663     1.9416     0.0135 S.3     
   6 N6            -3.6899     0.1082    -0.1357 N.pl3   
   7 C7            -1.6226    -1.9971    -0.1716 C.2     
   8 N8            -1.6972    -2.5972    -1.3762 N.am    
   9 O9            -1.7795    -2.6495     0.8441 O.2     
  10 N10           -1.9555    -3.9717    -1.4592 N.pl3   
  11 C11            1.1954     2.2353     0.0026 C.3     
  12 C12            1.7521     2.2733    -1.4238 C.3     
  13 C13            2.0110     0.8368    -1.8893 C.3     
  14 C14            3.0685     0.2897    -0.9519 C.3     
  15 C15            2.5044    -0.2303     0.3583 C.3     
  16 C16            1.1820    -0.9585     0.1546 C.3     
  17 C17            0.7357     2.9387    -2.3538 C.3     
  18 C18           -2.0329    -4.5935    -2.7075 C.ar    
  19 C19           -2.2889    -5.9562    -2.7917 C.ar    
  20 C20           -2.3647    -6.5680    -4.0275 C.ar    
  21 C21           -2.1861    -5.8255    -5.1804 C.ar    
  22 C22           -1.9306    -4.4688    -5.1002 C.ar    
  23 C23           -1.8596    -3.8496    -3.8678 C.ar    
  24 H24           -3.9972    -0.8104    -0.1865 H       
  25 H25           -4.3325     0.8347    -0.1259 H       
  26 H26           -1.5722    -2.0774    -2.1855 H       
  27 H27           -2.0806    -4.4914    -0.6499 H       
  28 H28            0.9020     3.2389     0.3104 H       
  29 H29            1.9529     1.8472     0.6835 H       
  30 H30            2.6858     2.8356    -1.4369 H       
  31 H31            1.0982     0.2459    -1.8133 H       
  32 H32            2.3790     0.8338    -2.9153 H       
  33 H33            3.5929    -0.5236    -1.4536 H       
  34 H34            3.7851     1.0815    -0.7338 H       
  35 H35            3.2226    -0.9168     0.8067 H       
  36 H36            2.3471     0.6092     1.0355 H       
  37 H37            1.0015    -1.6069     1.0120 H       
  38 H38            1.2541    -1.5751    -0.7413 H       
  39 H39            0.5429     3.9560    -2.0130 H       
  40 H40            1.1338     2.9647    -3.3681 H       
  41 H41           -0.1939     2.3696    -2.3428 H       
  42 H42           -2.4281    -6.5368    -1.8917 H       
  43 H43           -2.5633    -7.6275    -4.0937 H       
  44 H44           -2.2459    -6.3063    -6.1456 H       
  45 H45           -1.7913    -3.8919    -6.0025 H       
  46 H46           -1.6601    -2.7900    -3.8058 H       
@<TRIPOS>BOND
   1    1    2 2
   2    1   11 1
   3    1    5 1
   4    2    3 1
   5    2   16 1
   6    3    4 2
   7    3    7 1
   8    4    5 1
   9    4    6 1
  10    6   24 1
  11    6   25 1
  12    7    8 am
  13    7    9 2
  14    8   10 1
  15    8   26 1
  16   10   18 1
  17   10   27 1
  18   11   12 1
  19   11   28 1
  20   11   29 1
  21   12   13 1
  22   12   17 1
  23   12   30 1
  24   13   14 1
  25   13   31 1
  26   13   32 1
  27   14   15 1
  28   14   33 1
  29   14   34 1
  30   15   16 1
  31   15   35 1
  32   15   36 1
  33   16   37 1
  34   16   38 1
  35   17   39 1
  36   17   40 1
  37   17   41 1
  38   18   19 ar
  39   18   23 ar
  40   19   20 ar
  41   19   42 1
  42   20   21 ar
  43   20   43 1
  44   21   22 ar
  45   21   44 1
  46   22   23 ar
  47   22   45 1
  48   23   46 1

#	End of record

