#	Name: ASD03540499
#	Creating user name:	WinNT
#	Creation time:	15. 06. 2019 20:43

#	Modifying user name:	WinNT
#	Modification time:	15. 06. 2019 20:43

#	Program:	/corina/corina34_cracker 3.40 0067  02.08.2006

@<TRIPOS>MOLECULE
ASD03540499
  59   62    0    0    0
SMALL
NO_CHARGES


@<TRIPOS>ATOM
   1 C1            10.8003     0.5424     2.6545 C.2     
   2 C2            10.5428    -0.9396     2.5631 C.3     
   3 O3             9.9936     1.3244     2.2098 O.2     
   4 O4            11.9232     0.9939     3.2349 O.3     
   5 C5             9.2214    -1.1786     1.8790 C.ar    
   6 C6             9.1700    -1.3191     0.5048 C.ar    
   7 C7             7.9580    -1.5383    -0.1228 C.ar    
   8 C8             6.7974    -1.6173     0.6240 C.ar    
   9 C9             6.8489    -1.4777     1.9983 C.ar    
  10 C10            8.0615    -1.2628     2.6262 C.ar    
  11 C11            5.4759    -1.8553    -0.0602 C.3     
  12 N12            5.4458    -3.1267    -3.5176 N.am    
  13 C13            5.2992    -2.3580    -2.4253 C.2     
  14 N14            5.6707    -2.7564    -1.1987 N.am    
  15 C15            6.2214    -3.9730    -0.9946 C.2     
  16 C16            6.4061    -4.8590    -2.1586 C.ar    
  17 C17            6.9654    -6.1242    -2.0309 C.ar    
  18 C18            7.1170    -6.9200    -3.1657 C.ar    
  19 C19            6.7084    -6.4429    -4.4173 C.ar    
  20 C20            6.1584    -5.1985    -4.5425 C.ar    
  21 C21            5.9991    -4.3917    -3.4230 C.ar    
  22 C22            7.7096    -8.2671    -3.0477 C.2     
  23 N23            7.8566    -9.0371    -4.1441 N.am    
  24 O24            8.0649    -8.6819    -1.9615 O.2     
  25 C25            8.4445   -10.3738    -4.0270 C.3     
  26 C26            9.6150   -11.4731    -7.4468 C.ar    
  27 C27            9.6036   -10.8647    -6.2060 C.ar    
  28 C28            8.4958   -11.0209    -5.3870 C.ar    
  29 C29            7.4365   -11.7871    -5.8488 C.ar    
  30 C30            7.5195   -12.3655    -7.1013 C.ar    
  31 N31            8.5891   -12.1950    -7.8535 N.ar    
  32 O32            6.5562    -4.3276     0.1191 O.2     
  33 O33            4.8089    -1.2530    -2.5537 O.2     
  34 C34            4.4959    -2.4884     0.9295 C.3     
  35 C35           12.1051     2.4335     3.2876 C.3     
  36 H36           11.3398    -1.4121     1.9890 H       
  37 H37           10.5152    -1.3661     3.5658 H       
  38 H38           10.0768    -1.2573    -0.0787 H       
  39 H39            7.9177    -1.6474    -1.1965 H       
  40 H40            5.9421    -1.5391     2.5817 H       
  41 H41            8.1022    -1.1574     3.7003 H       
  42 H42            5.0733    -0.9058    -0.4131 H       
  43 H43            5.1571    -2.7928    -4.3814 H       
  44 H44            7.2795    -6.4872    -1.0635 H       
  45 H45            6.8296    -7.0646    -5.2921 H       
  46 H46            5.8471    -4.8417    -5.5132 H       
  47 H47            7.5730    -8.7062    -5.0107 H       
  48 H48            9.4544   -10.2926    -3.6249 H       
  49 H49            7.8350   -10.9815    -3.3582 H       
  50 H50           10.4722   -11.3526    -8.0926 H       
  51 H51           10.4470   -10.2750    -5.8784 H       
  52 H52            6.5579   -11.9304    -5.2374 H       
  53 H53            6.6986   -12.9637    -7.4683 H       
  54 H54            4.3509    -1.8180     1.7766 H       
  55 H55            3.5400    -2.6605     0.4347 H       
  56 H56            4.8984    -3.4379     1.2824 H       
  57 H57           12.1170     2.8356     2.2746 H       
  58 H58           11.2850     2.8831     3.8473 H       
  59 H59           13.0499     2.6626     3.7805 H       
@<TRIPOS>BOND
   1    1    2 1
   2    1    3 2
   3    1    4 1
   4    2    5 1
   5    2   36 1
   6    2   37 1
   7    4   35 1
   8    5    6 ar
   9    5   10 ar
  10    6    7 ar
  11    6   38 1
  12    7    8 ar
  13    7   39 1
  14    8    9 ar
  15    8   11 1
  16    9   10 ar
  17    9   40 1
  18   10   41 1
  19   11   14 1
  20   11   34 1
  21   11   42 1
  22   12   13 am
  23   12   21 1
  24   12   43 1
  25   13   14 am
  26   13   33 2
  27   14   15 am
  28   15   16 1
  29   15   32 2
  30   16   17 ar
  31   16   21 ar
  32   17   18 ar
  33   17   44 1
  34   18   19 ar
  35   18   22 1
  36   19   20 ar
  37   19   45 1
  38   20   21 ar
  39   20   46 1
  40   22   23 am
  41   22   24 2
  42   23   25 1
  43   23   47 1
  44   25   28 1
  45   25   48 1
  46   25   49 1
  47   26   27 ar
  48   26   31 ar
  49   26   50 1
  50   27   28 ar
  51   27   51 1
  52   28   29 ar
  53   29   30 ar
  54   29   52 1
  55   30   31 ar
  56   30   53 1
  57   34   54 1
  58   34   55 1
  59   34   56 1
  60   35   57 1
  61   35   58 1
  62   35   59 1

#	End of record

