#	Name: ASD02440009
#	Creating user name:	WinNT
#	Creation time:	15. 06. 2019 20:21

#	Modifying user name:	WinNT
#	Modification time:	15. 06. 2019 20:21

#	Program:	/corina/corina34_cracker 3.40 0067  02.08.2006

@<TRIPOS>MOLECULE
ASD02440009
  32   34    0    0    0
SMALL
NO_CHARGES


@<TRIPOS>ATOM
   1 Cl1           -0.2241     0.4712     0.5452 Cl      
   2 C2             0.0115     2.1169     0.0453 C.2     
   3 C3             1.2671     2.5736    -0.1805 C.2     
   4 N4             2.3425     1.7270    -0.0115 N.pl3   
   5 C5             3.3440     2.0460     0.9063 C.ar    
   6 C6             3.1816     3.1244     1.7677 C.ar    
   7 C7             4.1750     3.4370     2.6747 C.ar    
   8 C8             5.3301     2.6785     2.7265 C.ar    
   9 C9             5.4954     1.6046     1.8704 C.ar    
  10 C10            4.5041     1.2823     0.9652 C.ar    
  11 N11            6.7339     0.7961     1.9293 N.pl3   
  12 O12            7.6066     1.0765     2.7313 O.2     
  13 O13            6.8802    -0.1496     1.1759 O.2     
  14 C14            1.4955     3.9740    -0.6079 C.2     
  15 O15            2.6240     4.3751    -0.8086 O.2     
  16 C16            0.3409     4.8797    -0.7889 C.ar    
  17 C17           -0.9583     4.3969    -0.5523 C.ar    
  18 C18           -1.1484     2.9900    -0.1321 C.2     
  19 O19           -2.2686     2.5629     0.0746 O.2     
  20 C20           -2.0481     5.2413    -0.7196 C.ar    
  21 C21           -1.8481     6.5540    -1.1186 C.ar    
  22 C22           -0.5716     7.0284    -1.3517 C.ar    
  23 C23            0.5260     6.1983    -1.1887 C.ar    
  24 H24            2.4028     0.9099    -0.5306 H       
  25 H25            2.2799     3.7174     1.7276 H       
  26 H26            4.0497     4.2752     3.3442 H       
  27 H27            6.1052     2.9254     3.4368 H       
  28 H28            4.6337     0.4435     0.2973 H       
  29 H29           -3.0485     4.8764    -0.5397 H       
  30 H30           -2.6961     7.2100    -1.2485 H       
  31 H31           -0.4283     8.0526    -1.6629 H       
  32 H32            1.5217     6.5742    -1.3722 H       
@<TRIPOS>BOND
   1    1    2 1
   2    2    3 2
   3    2   18 1
   4    3    4 1
   5    3   14 1
   6    4    5 1
   7    4   24 1
   8    5    6 ar
   9    5   10 ar
  10    6    7 ar
  11    6   25 1
  12    7    8 ar
  13    7   26 1
  14    8    9 ar
  15    8   27 1
  16    9   10 ar
  17    9   11 1
  18   10   28 1
  19   11   12 2
  20   11   13 2
  21   14   15 2
  22   14   16 1
  23   16   17 ar
  24   16   23 ar
  25   17   18 1
  26   17   20 ar
  27   18   19 2
  28   20   21 ar
  29   20   29 1
  30   21   22 ar
  31   21   30 1
  32   22   23 ar
  33   22   31 1
  34   23   32 1

#	End of record

