#	Name: ASD05430140
#	Creating user name:	WinNT
#	Creation time:	15. 06. 2019 20:59

#	Modifying user name:	WinNT
#	Modification time:	15. 06. 2019 20:59

#	Program:	/corina/corina34_cracker 3.40 0067  02.08.2006

@<TRIPOS>MOLECULE
ASD05430140
  69   74    0    0    0
SMALL
NO_CHARGES


@<TRIPOS>ATOM
   1 C1             0.1560     0.9950    -0.1106 C.ar    
   2 C2             0.1923    -0.1492    -0.9070 C.ar    
   3 C3             1.3841    -0.5524    -1.4954 C.ar    
   4 C4             2.5364     0.1760    -1.2947 C.ar    
   5 C5             2.5075     1.3247    -0.4972 C.ar    
   6 C6             1.3078     1.7307     0.0947 C.ar    
   7 C7             5.0008    -0.0324    -0.1201 C.3     
   8 C8             4.9228     1.4756    -0.1760 C.2     
   9 C9             3.7376     2.1042    -0.2816 C.2     
  10 C10            6.3285    -0.4845     0.4711 C.3     
  11 C11            6.8928     0.5117     1.4782 C.3     
  12 N12            7.1280     1.7915     0.8108 N.pl3   
  13 C13            6.1822     2.2378    -0.1110 C.2     
  14 C14            9.4148     1.7578     1.6229 C.ar    
  15 C15           10.2549     1.0915     0.7502 C.ar    
  16 C16           11.2804     0.3061     1.2415 C.ar    
  17 C17           11.4663     0.1867     2.6084 C.ar    
  18 C18           10.6243     0.8545     3.4814 C.ar    
  19 C19            9.5995     1.6393     2.9878 C.ar    
  20 N20           -0.9765    -0.8943    -1.1137 N.pl3   
  21 C21           -1.4727    -1.3138    -2.3209 C.2     
  22 C22           -2.6058    -1.9938    -2.0618 C.2     
  23 N23           -2.8008    -1.9927    -0.7348 N.2     
  24 C24           -1.8286    -1.3423    -0.1554 C.2     
  25 C25           -3.5006    -2.6432    -3.0859 C.3     
  26 N26            6.4216     3.2554    -0.8696 N.2     
  27 C27           -0.9774     2.5710     1.2626 C.3     
  28 O28           -1.0135     1.3898     0.4592 O.3     
  29 C29            8.3008     2.6188     1.0858 C.3     
  30 C30            8.7441     3.2786    -0.2247 C.3     
  31 O31            7.6456     3.9532    -0.8294 O.3     
  32 F32           12.4682    -0.5811     3.0898 F       
  33 O33            9.0919     4.5032     2.3756 O.3     
  34 C34            7.9421     3.6972     2.1102 C.3     
  35 C35            6.1638    -1.8649     1.1384 C.3     
  36 O36            7.3853    -2.5716     0.8283 O.3     
  37 C37            7.6869    -2.2295    -0.5423 C.3     
  38 C38            7.3523    -0.7249    -0.6567 C.3     
  39 H39            1.4078    -1.4391    -2.1114 H       
  40 H40            3.4618    -0.1402    -1.7529 H       
  41 H41            1.2811     2.6173     0.7110 H       
  42 H42            4.1861    -0.4109     0.4972 H       
  43 H43            4.9020    -0.4341    -1.1285 H       
  44 H44            3.6888     3.1806    -0.2082 H       
  45 H45            6.1801     0.6507     2.2912 H       
  46 H46            7.8329     0.1318     1.8784 H       
  47 H47           10.1095     1.1845    -0.3159 H       
  48 H48           11.9363    -0.2146     0.5596 H       
  49 H49           10.7684     0.7621     4.5478 H       
  50 H50            8.9426     2.1603     3.6686 H       
  51 H51           -1.0382    -1.1335    -3.2931 H       
  52 H52           -1.7234    -1.1808     0.9072 H       
  53 H53           -3.1758    -3.6701    -3.2532 H       
  54 H54           -4.5285    -2.6417    -2.7234 H       
  55 H55           -3.4446    -2.0873    -4.0218 H       
  56 H56           -1.9736     2.7734     1.6560 H       
  57 H57           -0.2826     2.4266     2.0900 H       
  58 H58           -0.6485     3.4139     0.6548 H       
  59 H59            9.5387     3.9954    -0.0178 H       
  60 H60            9.1180     2.5142    -0.9058 H       
  61 H61            8.9374     5.2093     3.0180 H       
  62 H62            7.1430     4.3235     1.7138 H       
  63 H63            7.6089     3.2243     3.0340 H       
  64 H64            6.0525    -1.7543     2.2170 H       
  65 H65            5.3050    -2.3891     0.7190 H       
  66 H66            8.7427    -2.4004    -0.7525 H       
  67 H67            7.0647    -2.8095    -1.2239 H       
  68 H68            6.9096    -0.5046    -1.6281 H       
  69 H69            8.2458    -0.1214    -0.4970 H       
@<TRIPOS>BOND
   1    1    2 ar
   2    1    6 ar
   3    1   28 1
   4    2    3 ar
   5    2   20 1
   6    3    4 ar
   7    3   39 1
   8    4    5 ar
   9    4   40 1
  10    5    6 ar
  11    5    9 1
  12    6   41 1
  13    7    8 1
  14    7   10 1
  15    7   42 1
  16    7   43 1
  17    8    9 2
  18    8   13 1
  19    9   44 1
  20   10   11 1
  21   10   35 1
  22   10   38 1
  23   11   12 1
  24   11   45 1
  25   11   46 1
  26   12   13 1
  27   12   29 1
  28   13   26 2
  29   14   15 ar
  30   14   19 ar
  31   14   29 1
  32   15   16 ar
  33   15   47 1
  34   16   17 ar
  35   16   48 1
  36   17   18 ar
  37   17   32 1
  38   18   19 ar
  39   18   49 1
  40   19   50 1
  41   20   21 1
  42   20   24 1
  43   21   22 2
  44   21   51 1
  45   22   23 1
  46   22   25 1
  47   23   24 2
  48   24   52 1
  49   25   53 1
  50   25   54 1
  51   25   55 1
  52   26   31 1
  53   27   28 1
  54   27   56 1
  55   27   57 1
  56   27   58 1
  57   29   30 1
  58   29   34 1
  59   30   31 1
  60   30   59 1
  61   30   60 1
  62   33   34 1
  63   33   61 1
  64   34   62 1
  65   34   63 1
  66   35   36 1
  67   35   64 1
  68   35   65 1
  69   36   37 1
  70   37   38 1
  71   37   66 1
  72   37   67 1
  73   38   68 1
  74   38   69 1

#	End of record

