#	Name: ASD03330242
#	Creating user name:	WinNT
#	Creation time:	15. 06. 2019 20:36

#	Modifying user name:	WinNT
#	Modification time:	15. 06. 2019 20:36

#	Program:	/corina/corina34_cracker 3.40 0067  02.08.2006

@<TRIPOS>MOLECULE
ASD03330242
  70   74    0    0    0
SMALL
NO_CHARGES


@<TRIPOS>ATOM
   1 C1            -0.0179     1.4666     0.0101 C.3     
   2 N2             0.0021    -0.0041     0.0020 N.am    
   3 C3             0.5791    -0.6826    -1.1742 C.3     
   4 C4             1.8395     0.0634    -1.5376 C.2     
   5 N5             2.1950     1.2602    -1.0064 N.pl3   
   6 C6             1.4218     1.9926    -0.0008 C.3     
   7 C7             2.8088    -0.2954    -2.4175 C.2     
   8 N8             3.7410     0.6841    -2.4213 N.2     
   9 C9             3.3779     1.6226    -1.5775 C.2     
  10 C10            4.1276     2.8665    -1.2948 C.ar    
  11 C11            5.1488     3.2788    -2.1513 C.ar    
  12 C12            2.8399    -1.5294    -3.2224 C.2     
  13 O13            1.9371    -2.3390    -3.1295 O.2     
  14 C14            3.8999    -2.9876    -4.8617 C.3     
  15 N15            3.8689    -1.7608    -4.0615 N.am    
  16 C16            5.8439     4.4400    -1.8824 C.ar    
  17 C17            5.5301     5.1948    -0.7663 C.ar    
  18 C18            4.5186     4.7912     0.0869 C.ar    
  19 C19            3.8125     3.6348    -0.1738 C.ar    
  20 C20            4.7568    -2.8034    -6.1607 C.3     
  21 C21            4.3102    -1.7459    -7.1722 C.3     
  22 C22            4.7402    -4.1012    -4.1661 C.3     
  23 C23            5.3114    -3.6196    -2.8309 C.3     
  24 C24            3.9300    -5.3872    -3.9915 C.3     
  25 C25            6.2081    -2.8084    -5.6165 C.3     
  26 C26            5.8660    -4.2732    -5.2425 C.3     
  27 C27            5.1629    -4.2244    -6.6570 C.3     
  28 C28           -0.4915    -0.7107     1.0381 C.2     
  29 O29           -1.0131    -0.0708     2.1017 O.3     
  30 O30           -0.4658    -1.9252     1.0124 O.2     
  31 C31           -1.5262    -0.8957     3.1809 C.3     
  32 C32           -0.3982    -1.7667     3.7376 C.3     
  33 C33           -2.0738     0.0016     4.2926 C.3     
  34 C34           -2.6472    -1.7912     2.6496 C.3     
  35 H35           -0.5441     1.8282    -0.8733 H       
  36 H36           -0.5271     1.8186     0.9072 H       
  37 H37            0.8171    -1.7172    -0.9273 H       
  38 H38           -0.1254    -0.6499    -2.0053 H       
  39 H39            1.4195     3.0547    -0.2457 H       
  40 H40            1.8705     1.8456     0.9816 H       
  41 H41            5.3949     2.6903    -3.0227 H       
  42 H42            2.8927    -3.3335    -5.0941 H       
  43 H43            4.5889    -1.1151    -4.1357 H       
  44 H44            6.6348     4.7601    -2.5445 H       
  45 H45            6.0774     6.1027    -0.5599 H       
  46 H46            4.2784     5.3848     0.9566 H       
  47 H47            3.0231     3.3208     0.4930 H       
  48 H48            4.3053    -0.7659    -6.6951 H       
  49 H49            5.0003    -1.7358    -8.0159 H       
  50 H50            3.3069    -1.9826    -7.5263 H       
  51 H51            4.4937    -3.3624    -2.1576 H       
  52 H52            5.9127    -4.4124    -2.3859 H       
  53 H53            5.9346    -2.7411    -2.9979 H       
  54 H54            3.5918    -5.7388    -4.9662 H       
  55 H55            4.5547    -6.1500    -3.5268 H       
  56 H56            3.0661    -5.1890    -3.3570 H       
  57 H57            6.9745    -2.7102    -6.3853 H       
  58 H58            6.3670    -2.1533    -4.7599 H       
  59 H59            6.6597    -4.9930    -5.0428 H       
  60 H60            4.3268    -4.9120    -6.7845 H       
  61 H61            5.8568    -4.2256    -7.4976 H       
  62 H62            0.4004    -1.1287     4.1162 H       
  63 H63           -0.7834    -2.3859     4.5477 H       
  64 H64           -0.0080    -2.4059     2.9456 H       
  65 H65           -2.8774     0.6221     3.8960 H       
  66 H66           -2.4590    -0.6176     5.1027 H       
  67 H67           -1.2752     0.6396     4.6711 H       
  68 H68           -2.2570    -2.4304     1.8576 H       
  69 H69           -3.0323    -2.4104     3.4597 H       
  70 H70           -3.4508    -1.1707     2.2529 H       
@<TRIPOS>BOND
   1    1    2 1
   2    1    6 1
   3    1   35 1
   4    1   36 1
   5    2    3 1
   6    2   28 am
   7    3    4 1
   8    3   37 1
   9    3   38 1
  10    4    5 1
  11    4    7 2
  12    5    6 1
  13    5    9 1
  14    6   39 1
  15    6   40 1
  16    7    8 1
  17    7   12 1
  18    8    9 2
  19    9   10 1
  20   10   11 ar
  21   10   19 ar
  22   11   16 ar
  23   11   41 1
  24   12   13 2
  25   12   15 am
  26   14   15 1
  27   14   20 1
  28   14   22 1
  29   14   42 1
  30   15   43 1
  31   16   17 ar
  32   16   44 1
  33   17   18 ar
  34   17   45 1
  35   18   19 ar
  36   18   46 1
  37   19   47 1
  38   20   21 1
  39   20   25 1
  40   20   27 1
  41   21   48 1
  42   21   49 1
  43   21   50 1
  44   22   23 1
  45   22   24 1
  46   22   26 1
  47   23   51 1
  48   23   52 1
  49   23   53 1
  50   24   54 1
  51   24   55 1
  52   24   56 1
  53   25   26 1
  54   25   57 1
  55   25   58 1
  56   26   27 1
  57   26   59 1
  58   27   60 1
  59   27   61 1
  60   28   29 1
  61   28   30 2
  62   29   31 1
  63   31   32 1
  64   31   33 1
  65   31   34 1
  66   32   62 1
  67   32   63 1
  68   32   64 1
  69   33   65 1
  70   33   66 1
  71   33   67 1
  72   34   68 1
  73   34   69 1
  74   34   70 1

#	End of record

