#	Name: ASD01870552
#	Creating user name:	WinNT
#	Creation time:	15. 06. 2019 19:39

#	Modifying user name:	WinNT
#	Modification time:	15. 06. 2019 19:39

#	Program:	/corina/corina34_cracker 3.40 0067  02.08.2006

@<TRIPOS>MOLECULE
ASD01870552
  47   51    0    0    0
SMALL
NO_CHARGES


@<TRIPOS>ATOM
   1 N1            -0.0159     1.3218     0.0093 N.2     
   2 C2             0.0021    -0.0041     0.0020 C.ar    
   3 C3             1.3553    -0.4303    -0.0132 C.ar    
   4 N4             1.3007     1.8031    -0.0007 N.pl3   
   5 C5            -1.0059    -1.0028     0.0063 C.ar    
   6 N6            -0.6346    -2.2735    -0.0041 N.ar    
   7 C7             0.6441    -2.6217    -0.0182 C.ar    
   8 N8             1.6184    -1.7450    -0.0228 N.ar    
   9 C9             1.8018     3.0710     0.0009 C.2     
  10 C10            2.1503     0.7299    -0.0146 C.2     
  11 C11            3.5361     0.9318    -0.0267 C.2     
  12 C12            4.0272     2.2054    -0.0246 C.2     
  13 C13            3.1363     3.2872    -0.0110 C.2     
  14 N14           -2.3433    -0.6573     0.0214 N.pl3   
  15 C15           -3.3769    -1.7096     0.0256 C.3     
  16 C16           -5.9028    -1.4647     0.0738 C.3     
  17 C17           -5.9822    -2.8294     0.7653 C.3     
  18 C18           -5.0996    -2.1731     1.8435 C.3     
  19 C19           -3.6198    -2.1583     1.4596 C.3     
  20 C20           -4.6122    -1.1938    -0.6970 C.3     
  21 C21           -4.6879    -1.7331    -2.1261 C.3     
  22 C22           -5.8049    -0.8512     1.4902 C.3     
  23 C23           -7.3928    -3.1777     1.2718 C.3     
  24 C24           -5.3400    -4.0118     0.0477 C.3     
  25 H25            0.8938    -3.6723    -0.0258 H       
  26 H26            1.1249     3.9124     0.0116 H       
  27 H27            4.2099     0.0878    -0.0373 H       
  28 H28            5.0933     2.3780    -0.0338 H       
  29 H29            3.5174     4.2977    -0.0095 H       
  30 H30           -2.6027     0.2773     0.0292 H       
  31 H31           -2.9631    -2.5603    -0.5448 H       
  32 H32           -6.8117    -1.1744    -0.4747 H       
  33 H33           -5.2882    -2.5334     2.8640 H       
  34 H34           -3.1881    -3.1557     1.6151 H       
  35 H35           -3.0846    -1.4768     2.1422 H       
  36 H36           -4.5073    -0.0880    -0.7830 H       
  37 H37           -4.7306    -2.8220    -2.1018 H       
  38 H38           -5.5821    -1.3453    -2.6139 H       
  39 H39           -3.8048    -1.4165    -2.6812 H       
  40 H40           -5.1536     0.0239     1.5391 H       
  41 H41           -6.7594    -0.6917     1.9811 H       
  42 H42           -8.0864    -3.1964     0.4311 H       
  43 H43           -7.3755    -4.1568     1.7504 H       
  44 H44           -7.7158    -2.4266     1.9926 H       
  45 H45           -4.2767    -3.8177    -0.0927 H       
  46 H46           -5.4688    -4.9136     0.6462 H       
  47 H47           -5.8156    -4.1492    -0.9234 H       
@<TRIPOS>BOND
   1    1    2 2
   2    1    4 1
   3    2    3 ar
   4    2    5 ar
   5    3   10 2
   6    3    8 ar
   7    4   10 1
   8    4    9 1
   9    5    6 ar
  10    5   14 1
  11    6    7 ar
  12    7    8 ar
  13    7   25 1
  14    9   13 2
  15    9   26 1
  16   10   11 1
  17   11   12 2
  18   11   27 1
  19   12   13 1
  20   12   28 1
  21   13   29 1
  22   14   15 1
  23   14   30 1
  24   15   19 1
  25   15   20 1
  26   15   31 1
  27   16   17 1
  28   16   22 1
  29   16   20 1
  30   16   32 1
  31   17   23 1
  32   17   24 1
  33   17   18 1
  34   18   19 1
  35   18   22 1
  36   18   33 1
  37   19   34 1
  38   19   35 1
  39   20   21 1
  40   20   36 1
  41   21   37 1
  42   21   38 1
  43   21   39 1
  44   22   40 1
  45   22   41 1
  46   23   42 1
  47   23   43 1
  48   23   44 1
  49   24   45 1
  50   24   46 1
  51   24   47 1

#	End of record

