#	Name: ASD01028833
#	Creating user name:	WinNT
#	Creation time:	15. 06. 2019 18:58

#	Modifying user name:	WinNT
#	Modification time:	15. 06. 2019 18:58

#	Program:	/corina/corina34_cracker 3.40 0067  02.08.2006

@<TRIPOS>MOLECULE
ASD01028833
  46   51    0    0    0
SMALL
NO_CHARGES


@<TRIPOS>ATOM
   1 C1            -0.0157     1.3069     0.0092 C.ar    
   2 N2             0.0021    -0.0041     0.0020 N.ar    
   3 C3             1.1586     2.0559     0.0020 C.ar    
   4 C4             2.3699     1.4244    -0.0129 C.ar    
   5 C5             2.3850     0.0172    -0.0207 C.ar    
   6 C6             1.1531    -0.6832    -0.0126 C.ar    
   7 C7             3.5917    -0.7011    -0.0355 C.ar    
   8 C8             3.5643    -2.0621    -0.0422 C.ar    
   9 C9             2.3540    -2.7531    -0.0344 C.ar    
  10 C10            1.1663    -2.0891    -0.0204 C.ar    
  11 C11            4.8598    -2.8318    -0.0587 C.3     
  12 C12            4.9407    -3.7054     1.1666 C.2     
  13 N13            5.8927    -3.6504     2.1235 N.pl3   
  14 C14            5.5669    -4.6226     3.0390 C.2     
  15 N15            4.4615    -5.2042     2.6028 N.2     
  16 N16            4.0975    -4.6511     1.4988 N.2     
  17 N17            7.0268    -2.8589     2.3162 N.2     
  18 C18            7.7915    -3.0353     3.3715 C.2     
  19 C19            7.4836    -4.0256     4.3290 C.2     
  20 C20            6.3859    -4.8105     4.1687 C.2     
  21 C21            4.9177    -3.7060    -1.3130 C.3     
  22 C22            8.9913    -2.1842     3.5575 C.ar    
  23 C23            9.8116    -2.3630     4.6761 C.ar    
  24 C24           10.9144    -1.5893     4.8574 C.ar    
  25 C25           11.2530    -0.5906     3.9201 C.ar    
  26 C26           10.4308    -0.4123     2.8002 C.ar    
  27 C27            9.3071    -1.2109     2.6185 C.ar    
  28 N28           12.2901     0.2672     3.9194 N.2     
  29 C29           12.3845     1.0914     2.9451 C.2     
  30 S30           11.1087     0.8913     1.8296 S.3     
  31 H31           -0.9662     1.8197     0.0165 H       
  32 H32            1.1116     3.1349     0.0079 H       
  33 H33            3.2903     1.9894    -0.0191 H       
  34 H34            4.5358    -0.1768    -0.0420 H       
  35 H35            2.3588    -3.8330    -0.0400 H       
  36 H36            0.2374    -2.6400    -0.0144 H       
  37 H37            5.6970    -2.1339    -0.0633 H       
  38 H38            8.1211    -4.1595     5.1904 H       
  39 H39            6.1455    -5.5698     4.8981 H       
  40 H40            4.0804    -4.4040    -1.3084 H       
  41 H41            4.8592    -3.0742    -2.1993 H       
  42 H42            5.8547    -4.2628    -1.3249 H       
  43 H43            9.5662    -3.1230     5.4032 H       
  44 H44           11.5370    -1.7402     5.7269 H       
  45 H45            8.6769    -1.0693     1.7529 H       
  46 H46           13.1726     1.8225     2.8420 H       
@<TRIPOS>BOND
   1    1    2 ar
   2    1    3 ar
   3    1   31 1
   4    2    6 ar
   5    3    4 ar
   6    3   32 1
   7    4    5 ar
   8    4   33 1
   9    5    6 ar
  10    5    7 ar
  11    6   10 ar
  12    7    8 ar
  13    7   34 1
  14    8    9 ar
  15    8   11 1
  16    9   10 ar
  17    9   35 1
  18   10   36 1
  19   11   12 1
  20   11   21 1
  21   11   37 1
  22   12   13 1
  23   12   16 2
  24   13   14 1
  25   13   17 1
  26   14   15 2
  27   14   20 1
  28   15   16 1
  29   17   18 2
  30   18   19 1
  31   18   22 1
  32   19   20 2
  33   19   38 1
  34   20   39 1
  35   21   40 1
  36   21   41 1
  37   21   42 1
  38   22   23 ar
  39   22   27 ar
  40   23   24 ar
  41   23   43 1
  42   24   25 ar
  43   24   44 1
  44   25   26 ar
  45   25   28 1
  46   26   27 ar
  47   26   30 1
  48   27   45 1
  49   28   29 2
  50   29   30 1
  51   29   46 1

#	End of record

