#	Name: ASD01810696
#	Creating user name:	WinNT
#	Creation time:	15. 06. 2019 19:25

#	Modifying user name:	WinNT
#	Modification time:	15. 06. 2019 19:25

#	Program:	/corina/corina34_cracker 3.40 0067  02.08.2006

@<TRIPOS>MOLECULE
ASD01810696
  41   43    0    0    0
SMALL
NO_CHARGES


@<TRIPOS>ATOM
   1 N1            -0.0147     1.2903    -0.1154 N.pl3   
   2 N2             0.0047     0.0244    -0.3037 N.2     
   3 C3             1.1024    -0.6857    -0.4446 C.2     
   4 C4             2.4123    -0.0099    -0.3871 C.2     
   5 C5             2.3827     1.4485    -0.1699 C.ar    
   6 C6             3.5457     2.2101    -0.0943 C.ar    
   7 C7             3.4561     3.5600     0.1091 C.ar    
   8 C8             2.2171     4.1722     0.2406 C.ar    
   9 C9             1.0537     3.4359     0.1693 C.ar    
  10 C10            1.1207     2.0595    -0.0382 C.ar    
  11 C11            1.0248    -2.1413    -0.6574 C.2     
  12 O12            2.0432    -2.7916    -0.7870 O.2     
  13 O13           -0.1757    -2.7518    -0.7084 O.3     
  14 O14            3.4589    -0.6216    -0.5114 O.2     
  15 C15           -1.3141     1.9534     0.0188 C.3     
  16 C16           -2.8974     0.2829     1.0157 C.ar    
  17 C17           -2.4148     0.9315    -0.1055 C.ar    
  18 C18           -2.9563     0.6305    -1.3456 C.ar    
  19 C19           -3.9676    -0.3160    -1.4120 C.ar    
  20 C20           -4.3990    -0.9233    -0.2481 C.ar    
  21 N21           -3.8602    -0.6123     0.9148 N.ar    
  22 C22           -5.4974    -1.9533    -0.3084 C.3     
  23 Cl23          -0.4864     4.2191     0.3372 Cl      
  24 C24           -0.1762    -4.1882    -0.9209 C.3     
  25 C25           -1.6181    -4.6990    -0.9493 C.3     
  26 H26            4.5120     1.7385    -0.1953 H       
  27 H27            4.3562     4.1539     0.1682 H       
  28 H28            2.1639     5.2389     0.4011 H       
  29 H29           -1.3761     2.4374     0.9934 H       
  30 H30           -1.4229     2.7018    -0.7662 H       
  31 H31           -2.4778     0.5085     1.9849 H       
  32 H32           -2.5993     1.1216    -2.2387 H       
  33 H33           -4.4128    -0.5749    -2.3613 H       
  34 H34           -5.0609    -2.9421    -0.4495 H       
  35 H35           -6.0636    -1.9356     0.6228 H       
  36 H36           -6.1620    -1.7273    -1.1422 H       
  37 H37            0.3084    -4.4152    -1.8705 H       
  38 H38            0.3660    -4.6756    -0.1106 H       
  39 H39           -1.6185    -5.7773    -1.1088 H       
  40 H40           -2.1028    -4.4720     0.0003 H       
  41 H41           -2.1604    -4.2117    -1.7596 H       
@<TRIPOS>BOND
   1    1    2 1
   2    1   10 1
   3    1   15 1
   4    2    3 2
   5    3    4 1
   6    3   11 1
   7    4    5 1
   8    4   14 2
   9    5    6 ar
  10    5   10 ar
  11    6    7 ar
  12    6   26 1
  13    7    8 ar
  14    7   27 1
  15    8    9 ar
  16    8   28 1
  17    9   10 ar
  18    9   23 1
  19   11   12 2
  20   11   13 1
  21   13   24 1
  22   15   17 1
  23   15   29 1
  24   15   30 1
  25   16   17 ar
  26   16   21 ar
  27   16   31 1
  28   17   18 ar
  29   18   19 ar
  30   18   32 1
  31   19   20 ar
  32   19   33 1
  33   20   21 ar
  34   20   22 1
  35   22   34 1
  36   22   35 1
  37   22   36 1
  38   24   25 1
  39   24   37 1
  40   24   38 1
  41   25   39 1
  42   25   40 1
  43   25   41 1

#	End of record

