#	Name: ASD03330165
#	Creating user name:	WinNT
#	Creation time:	15. 06. 2019 20:36

#	Modifying user name:	WinNT
#	Modification time:	15. 06. 2019 20:36

#	Program:	/corina/corina34_cracker 3.40 0067  02.08.2006

@<TRIPOS>MOLECULE
ASD03330165
  32   34    0    0    0
SMALL
NO_CHARGES


@<TRIPOS>ATOM
   1 C1             0.0168     1.4095    -0.0097 C.2     
   2 C2            -0.0254     0.0442    -0.0094 C.2     
   3 C3             1.2078    -0.5692    -0.0037 C.2     
   4 C4             2.2749     0.3021     0.0007 C.2     
   5 S5             1.6864     1.9586    -0.0025 S.3     
   6 C6            -1.1182     2.2579    -0.0204 C.2     
   7 O7            -2.2441     1.7749    -0.0304 O.co2   
   8 O8            -0.9735     3.4746    -0.0197 O.co2   
   9 C9             1.3729    -2.0426    -0.0025 C.ar    
  10 C10            0.7729    -2.8120     0.9934 C.ar    
  11 C11            0.9281    -4.1825     0.9914 C.ar    
  12 C12            1.6807    -4.7959    -0.0007 C.ar    
  13 C13            2.2794    -4.0327    -0.9937 C.ar    
  14 C14            2.1238    -2.6623    -1.0005 C.ar    
  15 O15            1.8320    -6.1465     0.0005 O.3     
  16 C16            3.6960    -0.0947     0.0079 C.ar    
  17 C17            4.5871     0.4674    -0.9114 C.ar    
  18 C18            5.9152     0.0908    -0.8982 C.ar    
  19 C19            6.3642    -0.8405     0.0212 C.ar    
  20 C20            5.4874    -1.4009     0.9333 C.ar    
  21 C21            4.1589    -1.0296     0.9367 C.ar    
  22 Cl22           4.0249     1.6352    -2.0663 Cl      
  23 H23           -0.9522    -0.5103    -0.0130 H       
  24 H24            0.1875    -2.3354     1.7658 H       
  25 H25            0.4638    -4.7790     1.7628 H       
  26 H26            2.8646    -4.5130    -1.7639 H       
  27 H27            2.5865    -2.0695    -1.7757 H       
  28 H28            1.1515    -6.6190    -0.4983 H       
  29 H29            6.6051     0.5238    -1.6074 H       
  30 H30            7.4041    -1.1318     0.0269 H       
  31 H31            5.8452    -2.1276     1.6478 H       
  32 H32            3.4771    -1.4645     1.6525 H       
@<TRIPOS>BOND
   1    1    2 2
   2    1    5 1
   3    1    6 1
   4    2    3 1
   5    2   23 1
   6    3    4 2
   7    3    9 1
   8    4    5 1
   9    4   16 1
  10    6    7 ar
  11    6    8 ar
  12    9   10 ar
  13    9   14 ar
  14   10   11 ar
  15   10   24 1
  16   11   12 ar
  17   11   25 1
  18   12   13 ar
  19   12   15 1
  20   13   14 ar
  21   13   26 1
  22   14   27 1
  23   15   28 1
  24   16   17 ar
  25   16   21 ar
  26   17   18 ar
  27   17   22 1
  28   18   19 ar
  29   18   29 1
  30   19   20 ar
  31   19   30 1
  32   20   21 ar
  33   20   31 1
  34   21   32 1

#	End of record

