#	Name: ASD03930176
#	Creating user name:	WinNT
#	Creation time:	15. 06. 2019 20:47

#	Modifying user name:	WinNT
#	Modification time:	15. 06. 2019 20:47

#	Program:	/corina/corina34_cracker 3.40 0067  02.08.2006

@<TRIPOS>MOLECULE
ASD03930176
  40   42    0    0    0
SMALL
NO_CHARGES


@<TRIPOS>ATOM
   1 O1            -0.0162     1.3399     0.0094 O.3     
   2 C2             0.0021    -0.0041     0.0020 C.2     
   3 N3             1.2499    -0.3819    -0.0119 N.2     
   4 N4             2.0129     0.6541    -0.0136 N.2     
   5 C5             1.2720     1.7371    -0.0008 C.2     
   6 C6             1.7593     3.1331     0.0017 C.ar    
   7 C7             3.1278     3.3952    -0.0100 C.ar    
   8 C8             3.5782     4.7115    -0.0075 C.ar    
   9 C9             2.6591     5.7609     0.0064 C.ar    
  10 C10            1.3041     5.4963     0.0179 C.ar    
  11 C11            0.8492     4.1923     0.0098 C.ar    
  12 O12            5.7562     6.3006    -0.0195 O.3     
  13 B13            5.1184     5.0155    -0.0200 Du      
  14 O14            6.1965     4.0689    -0.0340 O.3     
  15 C15            7.1886     4.6322     0.8498 C.3     
  16 C16            6.8901     6.1453     0.8596 C.3     
  17 C17            8.0905     6.9290     0.3249 C.3     
  18 C18            6.5359     6.6096     2.2738 C.3     
  19 C19            7.0407     4.0505     2.2571 C.3     
  20 C20            8.5954     4.3699     0.3083 C.3     
  21 C21           -1.2020    -0.9103     0.0091 C.3     
  22 H22            3.8359     2.5799    -0.0204 H       
  23 H23            3.0085     6.7828     0.0087 H       
  24 H24            0.5969     6.3125     0.0287 H       
  25 H25           -0.2119     3.9913     0.0143 H       
  26 H26            7.8428     7.9897     0.2839 H       
  27 H27            8.9447     6.7806     0.9855 H       
  28 H28            8.3391     6.5750    -0.6756 H       
  29 H29            5.6902     6.0308     2.6450 H       
  30 H30            7.3934     6.4619     2.9302 H       
  31 H31            6.2717     7.6669     2.2535 H       
  32 H32            7.1978     2.9724     2.2230 H       
  33 H33            7.7796     4.5046     2.9174 H       
  34 H34            6.0395     4.2601     2.6335 H       
  35 H35            8.6884     4.8042    -0.6871 H       
  36 H36            9.3309     4.8233     0.9728 H       
  37 H37            8.7690     3.2952     0.2534 H       
  38 H38           -1.5025    -1.1233    -1.0168 H       
  39 H39           -0.9521    -1.8426     0.5155 H       
  40 H40           -2.0223    -0.4205     0.5337 H       
@<TRIPOS>BOND
   1    1    2 1
   2    1    5 1
   3    2    3 2
   4    2   21 1
   5    3    4 1
   6    4    5 2
   7    5    6 1
   8    6    7 ar
   9    6   11 ar
  10    7    8 ar
  11    7   22 1
  12    8    9 ar
  13    8   13 1
  14    9   10 ar
  15    9   23 1
  16   10   11 ar
  17   10   24 1
  18   11   25 1
  19   12   13 1
  20   12   16 1
  21   13   14 1
  22   14   15 1
  23   15   16 1
  24   15   19 1
  25   15   20 1
  26   16   17 1
  27   16   18 1
  28   17   26 1
  29   17   27 1
  30   17   28 1
  31   18   29 1
  32   18   30 1
  33   18   31 1
  34   19   32 1
  35   19   33 1
  36   19   34 1
  37   20   35 1
  38   20   36 1
  39   20   37 1
  40   21   38 1
  41   21   39 1
  42   21   40 1

#	End of record

