#	Name: ASD01810754
#	Creating user name:	WinNT
#	Creation time:	15. 06. 2019 19:25

#	Modifying user name:	WinNT
#	Modification time:	15. 06. 2019 19:25

#	Program:	/corina/corina34_cracker 3.40 0067  02.08.2006

@<TRIPOS>MOLECULE
ASD01810754
  44   46    0    0    0
SMALL
NO_CHARGES


@<TRIPOS>ATOM
   1 C1            -0.0096     1.4718     0.0890 C.2     
   2 C2             0.0061    -0.0047     0.0403 C.ar    
   3 C3             1.2149    -0.6874    -0.1186 C.ar    
   4 C4             1.2308    -2.0669    -0.1637 C.ar    
   5 C5             0.0540    -2.7814    -0.0522 C.ar    
   6 C6            -1.1606    -2.1119     0.1070 C.ar    
   7 C7            -1.1840    -0.7203     0.1587 C.ar    
   8 O8             1.0357     2.0904     0.0965 O.2     
   9 O9            -1.1833     2.1323     0.1194 O.3     
  10 N10           -3.7817    -4.5088     0.3307 N.2     
  11 N11           -2.5439    -4.1877     0.1997 N.2     
  12 C12           -2.4200    -2.8794     0.2262 C.2     
  13 N13           -3.6769    -2.3619     0.3855 N.pl3   
  14 C14           -4.5136    -3.4333     0.4475 C.2     
  15 C15           -6.0100    -3.3874     0.6194 C.3     
  16 O16           -7.5450    -6.3919    -0.7420 O.3     
  17 C17           -6.3506    -5.6683    -0.4233 C.3     
  18 C18           -6.6781    -4.1625    -0.5180 C.3     
  19 C19           -8.2232    -4.1508    -0.3620 C.3     
  20 C20           -8.6006    -5.4753    -1.0721 C.3     
  21 C21            0.0813    -4.2873    -0.1031 C.3     
  22 C22            2.5037     0.0839    -0.2416 C.3     
  23 C23           -1.1228     3.5822     0.1666 C.3     
  24 H24            2.1676    -2.5899    -0.2871 H       
  25 H25           -2.1206    -0.1979     0.2862 H       
  26 H26           -3.9210    -1.4249     0.4427 H       
  27 H27           -6.2801    -3.8386     1.5742 H       
  28 H28           -6.3464    -2.3508     0.5993 H       
  29 H29           -6.0285    -5.9137     0.5887 H       
  30 H30           -5.5642    -5.9211    -1.1345 H       
  31 H31           -6.3798    -3.7609    -1.4864 H       
  32 H32           -8.5121    -4.1723     0.6888 H       
  33 H33           -8.6630    -3.2931    -0.8709 H       
  34 H34           -8.6484    -5.3259    -2.1507 H       
  35 H35           -9.5548    -5.8465    -0.6981 H       
  36 H36            0.2042    -4.6827     0.9052 H       
  37 H37           -0.8544    -4.6535    -0.5254 H       
  38 H38            0.9138    -4.6148    -0.7258 H       
  39 H39            2.8681     0.3433     0.7524 H       
  40 H40            3.2465    -0.5287    -0.7525 H       
  41 H41            2.3286     0.9951    -0.8136 H       
  42 H42           -0.5877     3.8946     1.0633 H       
  43 H43           -0.6008     3.9530    -0.7156 H       
  44 H44           -2.1344     3.9876     0.1874 H       
@<TRIPOS>BOND
   1    1    2 1
   2    1    8 2
   3    1    9 1
   4    2    3 ar
   5    2    7 ar
   6    3    4 ar
   7    3   22 1
   8    4    5 ar
   9    4   24 1
  10    5    6 ar
  11    5   21 1
  12    6    7 ar
  13    6   12 1
  14    7   25 1
  15    9   23 1
  16   10   11 1
  17   10   14 2
  18   11   12 2
  19   12   13 1
  20   13   14 1
  21   13   26 1
  22   14   15 1
  23   15   18 1
  24   15   27 1
  25   15   28 1
  26   16   17 1
  27   16   20 1
  28   17   18 1
  29   17   29 1
  30   17   30 1
  31   18   19 1
  32   18   31 1
  33   19   20 1
  34   19   32 1
  35   19   33 1
  36   20   34 1
  37   20   35 1
  38   21   36 1
  39   21   37 1
  40   21   38 1
  41   22   39 1
  42   22   40 1
  43   22   41 1
  44   23   42 1
  45   23   43 1
  46   23   44 1

#	End of record

