#	Name: ASD02198172
#	Creating user name:	WinNT
#	Creation time:	15. 06. 2019 20:18

#	Modifying user name:	WinNT
#	Modification time:	15. 06. 2019 20:18

#	Program:	/corina/corina34_cracker 3.40 0067  02.08.2006

@<TRIPOS>MOLECULE
ASD02198172
  39   41    0    0    0
SMALL
NO_CHARGES


@<TRIPOS>ATOM
   1 C1             0.5468     1.3850    -0.6376 C.2     
   2 C2             0.4578     0.0115    -0.5494 C.2     
   3 C3            -0.7762    -0.6774    -0.3181 C.1     
   4 S4             2.1561     1.8733    -0.9176 S.3     
   5 C5             2.7294     0.2132    -0.9183 C.2     
   6 C6             1.6762    -0.6452    -0.7059 C.2     
   7 C7             4.0676    -0.1801    -1.1079 C.2     
   8 C8             5.0904     0.8264    -1.4704 C.ar    
   9 O9             4.3841    -1.3499    -0.9736 O.2     
  10 N10            1.8131    -2.0234    -0.6531 N.pl3   
  11 N11           -0.5205     2.2451    -0.5211 N.pl3   
  12 N12           -1.7550    -1.2239    -0.1347 N.1     
  13 C13            4.7342     1.9497    -2.2178 C.ar    
  14 C14           -0.3062     3.6264    -0.5018 C.ar    
  15 C15            0.8210     4.1470     0.1208 C.ar    
  16 C16            5.6924     2.8841    -2.5524 C.ar    
  17 C17            7.0042     2.7091    -2.1490 C.ar    
  18 C18            7.3639     1.5976    -1.4078 C.ar    
  19 C19            6.4140     0.6589    -1.0613 C.ar    
  20 C20            1.0301     5.5121     0.1384 C.ar    
  21 C21            0.1180     6.3609    -0.4635 C.ar    
  22 C22           -1.0063     5.8449    -1.0843 C.ar    
  23 C23           -1.2174     4.4806    -1.1103 C.ar    
  24 Cl24           0.3842     8.0762    -0.4395 Cl      
  25 C25           -1.9979     6.7727    -1.7379 C.3     
  26 F26           -3.0411     6.0240    -2.2932 F       
  27 F27           -2.5138     7.6530    -0.7809 F       
  28 F28           -1.3593     7.5022    -2.7465 F       
  29 H29            2.6867    -2.4288    -0.7689 H       
  30 H30            1.0353    -2.5826    -0.5003 H       
  31 H31           -1.4218     1.8931    -0.4524 H       
  32 H32            3.7106     2.0870    -2.5338 H       
  33 H33            1.5330     3.4850     0.5911 H       
  34 H34            5.4179     3.7539    -3.1308 H       
  35 H35            7.7508     3.4432    -2.4141 H       
  36 H36            8.3896     1.4667    -1.0959 H       
  37 H37            6.6959    -0.2081    -0.4824 H       
  38 H38            1.9062     5.9175     0.6227 H       
  39 H39           -2.0948     4.0786    -1.5949 H       
@<TRIPOS>BOND
   1    1    2 2
   2    1    4 1
   3    1   11 1
   4    2    3 1
   5    2    6 1
   6    3   12 3
   7    4    5 1
   8    5    6 2
   9    5    7 1
  10    6   10 1
  11    7    8 1
  12    7    9 2
  13    8   13 ar
  14    8   19 ar
  15   10   29 1
  16   10   30 1
  17   11   14 1
  18   11   31 1
  19   13   16 ar
  20   13   32 1
  21   14   15 ar
  22   14   23 ar
  23   15   20 ar
  24   15   33 1
  25   16   17 ar
  26   16   34 1
  27   17   18 ar
  28   17   35 1
  29   18   19 ar
  30   18   36 1
  31   19   37 1
  32   20   21 ar
  33   20   38 1
  34   21   22 ar
  35   21   24 1
  36   22   23 ar
  37   22   25 1
  38   23   39 1
  39   25   26 1
  40   25   27 1
  41   25   28 1

#	End of record

