#	Name: ASD01900309
#	Creating user name:	WinNT
#	Creation time:	15. 06. 2019 19:51

#	Modifying user name:	WinNT
#	Modification time:	15. 06. 2019 19:51

#	Program:	/corina/corina34_cracker 3.40 0067  02.08.2006

@<TRIPOS>MOLECULE
ASD01900309
  42   45    0    0    0
SMALL
NO_CHARGES


@<TRIPOS>ATOM
   1 C1            -0.0168     1.3891     0.0097 C.ar    
   2 C2             0.0021    -0.0041     0.0020 C.ar    
   3 C3             1.2223    -0.6605    -0.0132 C.ar    
   4 C4             2.3820     0.0992    -0.0202 C.ar    
   5 C5             2.2885     1.4815    -0.0119 C.ar    
   6 N6             1.1169     2.0792     0.0026 N.ar    
   7 C7            -1.3130     2.1060     0.0197 C.2     
   8 O8            -2.3544     1.4790     0.0212 O.2     
   9 N9            -1.3377     3.4535     0.0271 N.am    
  10 N10           -4.7519     4.5578     0.0501 N.am    
  11 C11           -3.7931     3.5746     0.0399 C.2     
  12 C12           -2.5674     4.1336     0.0367 C.2     
  13 C13           -2.7613     5.5886     0.0455 C.ar    
  14 C14           -1.8930     6.6815     0.0470 C.ar    
  15 C15           -2.3993     7.9505     0.0564 C.ar    
  16 C16           -3.7715     8.1621     0.0645 C.ar    
  17 C17           -4.6462     7.0981     0.0637 C.ar    
  18 C18           -4.1522     5.7971     0.0537 C.ar    
  19 S19           -6.3865     4.2922     0.0507 S.o2    
  20 O20           -6.9291     5.1270    -0.9632 O.2     
  21 O21           -6.5640     2.8825     0.0742 O.2     
  22 C22           -7.0128     4.8981     1.5821 C.ar    
  23 C23           -7.4333     6.2109     1.6857 C.ar    
  24 C24           -7.9246     6.6868     2.8867 C.ar    
  25 C25           -7.9956     5.8489     3.9854 C.ar    
  26 C26           -7.5746     4.5351     3.8811 C.ar    
  27 C27           -7.0887     4.0589     2.6780 C.ar    
  28 Cl28          -8.6121     6.4461     5.4944 Cl      
  29 H29           -0.9212    -0.5644     0.0082 H       
  30 H30            1.2690    -1.7395    -0.0191 H       
  31 H31            3.3489    -0.3818    -0.0317 H       
  32 H32            3.1899     2.0763    -0.0174 H       
  33 H33           -0.5068     3.9539     0.0259 H       
  34 H34           -3.9919     2.5131     0.0355 H       
  35 H35           -0.8245     6.5245     0.0411 H       
  36 H36           -1.7269     8.7956     0.0579 H       
  37 H37           -4.1568     9.1710     0.0719 H       
  38 H38           -5.7119     7.2729     0.0708 H       
  39 H39           -7.3775     6.8650     0.8281 H       
  40 H40           -8.2528     7.7125     2.9676 H       
  41 H41           -7.6298     3.8806     4.7384 H       
  42 H42           -6.7642     3.0321     2.5953 H       
@<TRIPOS>BOND
   1    1    2 ar
   2    1    6 ar
   3    1    7 1
   4    2    3 ar
   5    2   29 1
   6    3    4 ar
   7    3   30 1
   8    4    5 ar
   9    4   31 1
  10    5    6 ar
  11    5   32 1
  12    7    8 2
  13    7    9 am
  14    9   12 1
  15    9   33 1
  16   10   11 1
  17   10   18 1
  18   10   19 am
  19   11   12 2
  20   11   34 1
  21   12   13 1
  22   13   14 ar
  23   13   18 ar
  24   14   15 ar
  25   14   35 1
  26   15   16 ar
  27   15   36 1
  28   16   17 ar
  29   16   37 1
  30   17   18 ar
  31   17   38 1
  32   19   20 2
  33   19   21 2
  34   19   22 1
  35   22   23 ar
  36   22   27 ar
  37   23   24 ar
  38   23   39 1
  39   24   25 ar
  40   24   40 1
  41   25   26 ar
  42   25   28 1
  43   26   27 ar
  44   26   41 1
  45   27   42 1

#	End of record

