#	Name: ASD01901178
#	Creating user name:	WinNT
#	Creation time:	15. 06. 2019 19:53

#	Modifying user name:	WinNT
#	Modification time:	15. 06. 2019 19:53

#	Program:	/corina/corina34_cracker 3.40 0067  02.08.2006

@<TRIPOS>MOLECULE
ASD01901178
  54   56    0    0    0
SMALL
NO_CHARGES


@<TRIPOS>ATOM
   1 C1            -0.2506     1.5679     1.9068 C.ar    
   2 C2            -0.2603     0.2076     2.1342 C.ar    
   3 C3             0.9312    -0.4848     2.2603 C.ar    
   4 C4             2.1402     0.1808     2.1594 C.ar    
   5 C5             2.1656     1.5410     1.9326 C.ar    
   6 C6             0.9664     2.2469     1.8037 C.ar    
   7 C7             0.9847     3.6591     1.5672 C.1     
   8 C8             0.9996     4.8169     1.3733 C.1     
   9 C9             1.0179     6.2291     1.1368 C.ar    
  10 C10            2.2362     6.9065     1.0340 C.ar    
  11 C11            2.2500     8.2675     0.8061 C.ar    
  12 C12            1.0532     8.9652     0.6786 C.ar    
  13 C13           -0.1613     8.2943     0.7803 C.ar    
  14 C14           -0.1826     6.9325     1.0024 C.ar    
  15 N15            1.0711    10.3484     0.4475 N.am    
  16 C16            1.0899    10.8082    -0.8146 C.2     
  17 N17            1.3450    12.0976    -1.0898 N.am    
  18 C18            1.7350    13.0301    -0.0306 C.3     
  19 C19            0.9861    12.6825     1.2580 C.3     
  20 C20            1.0635    11.1952     1.4932 C.2     
  21 O21            0.8712    10.0385    -1.7295 O.2     
  22 F22            3.4271     8.9231     0.7071 F       
  23 O23            1.1226    10.7627     2.6243 O.2     
  24 F24           -1.3211     8.9758     0.6559 F       
  25 C25            3.2419    12.9211     0.2103 C.3     
  26 C26            1.3883    14.4596    -0.4518 C.3     
  27 C27            3.6080    11.4641     0.5001 C.3     
  28 C28            3.9932    13.3978    -1.0345 C.3     
  29 C29            3.6316    13.7925     1.4060 C.3     
  30 C30            1.2320    12.5778    -2.4692 C.3     
  31 H31           -1.1812     2.1062     1.8041 H       
  32 H32           -1.2001    -0.3184     2.2144 H       
  33 H33            0.9174    -1.5499     2.4387 H       
  34 H34            3.0661    -0.3661     2.2589 H       
  35 H35            3.1099     2.0593     1.8548 H       
  36 H36            3.1657     6.3655     1.1332 H       
  37 H37           -1.1257     6.4114     1.0765 H       
  38 H38            1.4406    13.2097     2.0969 H       
  39 H39           -0.0585    12.9788     1.1634 H       
  40 H40            1.6817    15.1521     0.3371 H       
  41 H41            1.9216    14.7073    -1.3696 H       
  42 H42            0.3147    14.5376    -0.6231 H       
  43 H43            3.2199    10.8270    -0.2946 H       
  44 H44            4.6924    11.3647     0.5487 H       
  45 H45            3.1725    11.1627     1.4528 H       
  46 H46            3.7324    14.4358    -1.2410 H       
  47 H47            5.0668    13.3201    -0.8629 H       
  48 H48            3.7155    12.7770    -1.8863 H       
  49 H49            3.0965    13.4529     2.2928 H       
  50 H50            4.7052    13.7148     1.5776 H       
  51 H51            3.3709    14.8305     1.1995 H       
  52 H52            0.9347    11.7536    -3.1176 H       
  53 H53            0.4825    13.3676    -2.5187 H       
  54 H54            2.1947    12.9693    -2.7977 H       
@<TRIPOS>BOND
   1    1    2 ar
   2    1    6 ar
   3    1   31 1
   4    2    3 ar
   5    2   32 1
   6    3    4 ar
   7    3   33 1
   8    4    5 ar
   9    4   34 1
  10    5    6 ar
  11    5   35 1
  12    6    7 1
  13    7    8 3
  14    8    9 1
  15    9   10 ar
  16    9   14 ar
  17   10   11 ar
  18   10   36 1
  19   11   12 ar
  20   11   22 1
  21   12   13 ar
  22   12   15 1
  23   13   14 ar
  24   13   24 1
  25   14   37 1
  26   15   16 am
  27   15   20 am
  28   16   17 am
  29   16   21 2
  30   17   30 1
  31   17   18 1
  32   18   19 1
  33   18   25 1
  34   18   26 1
  35   19   20 1
  36   19   38 1
  37   19   39 1
  38   20   23 2
  39   25   27 1
  40   25   28 1
  41   25   29 1
  42   26   40 1
  43   26   41 1
  44   26   42 1
  45   27   43 1
  46   27   44 1
  47   27   45 1
  48   28   46 1
  49   28   47 1
  50   28   48 1
  51   29   49 1
  52   29   50 1
  53   29   51 1
  54   30   52 1
  55   30   53 1
  56   30   54 1

#	End of record

