#	Name: ASD01918291
#	Creating user name:	WinNT
#	Creation time:	15. 06. 2019 20:11

#	Modifying user name:	WinNT
#	Modification time:	15. 06. 2019 20:11

#	Program:	/corina/corina34_cracker 3.40 0067  02.08.2006

@<TRIPOS>MOLECULE
ASD01918291
  46   49    0    0    0
SMALL
NO_CHARGES


@<TRIPOS>ATOM
   1 C1            -0.0178     1.4608     0.0101 C.3     
   2 N2             0.0021    -0.0041     0.0020 N.am    
   3 C3            -1.1703    -0.8922     0.0025 C.3     
   4 H4            -1.4658    -1.0536     1.0392 H       
   5 C5            -2.3427    -0.3090    -0.7311 C.3     
   6 C6            -2.2204    -0.4415    -2.2448 C.3     
   7 C7            -2.0399    -1.9254    -2.5831 C.3     
   8 C8            -0.7044    -2.3907    -2.0196 C.3     
   9 C9            -0.6192    -2.2040    -0.5371 C.3     
  10 H10           -1.0846    -3.0496    -0.0307 H       
  11 N11            0.8203    -2.0918    -0.1878 N.am    
  12 C12            1.0975    -0.7881    -0.0131 C.2     
  13 O13            2.2271    -0.3590     0.1212 O.2     
  14 C14            1.7211    -3.1472    -0.0684 C.ar    
  15 C15            1.3126    -4.4374    -0.3930 C.ar    
  16 C16            2.2098    -5.4796    -0.2732 C.ar    
  17 C17            3.5080    -5.1931     0.1749 C.ar    
  18 C18            3.8423    -3.8721     0.4812 C.ar    
  19 N19            2.9557    -2.9077     0.3474 N.ar    
  20 C20            4.4755    -6.2392     0.3166 C.1     
  21 C21            5.2687    -7.0969     0.4327 C.1     
  22 C22            6.2363    -8.1431     0.5744 C.ar    
  23 C23            5.8957    -9.4616     0.2608 C.ar    
  24 C24            6.8329   -10.4639     0.3993 C.ar    
  25 C25            8.1078   -10.1665     0.8479 C.ar    
  26 C26            8.4521    -8.8632     1.1608 C.ar    
  27 C27            7.5273    -7.8496     1.0214 C.ar    
  28 H28            1.0048     1.8381     0.0023 H       
  29 H29           -0.5450     1.8219    -0.8730 H       
  30 H30           -0.5280     1.8123     0.9069 H       
  31 H31           -3.2495    -0.8189    -0.4060 H       
  32 H32           -2.4260     0.7476    -0.4766 H       
  33 H33           -3.1247    -0.0631    -2.7213 H       
  34 H34           -1.3561     0.1231    -2.5947 H       
  35 H35           -2.8479    -2.5039    -2.1353 H       
  36 H36           -2.0470    -2.0578    -3.6650 H       
  37 H37           -0.5699    -3.4460    -2.2568 H       
  38 H38            0.0956    -1.8204    -2.4918 H       
  39 H39            0.3047    -4.6212    -0.7347 H       
  40 H40            1.9194    -6.4906    -0.5180 H       
  41 H41            4.8383    -3.6389     0.8275 H       
  42 H42            4.9009    -9.6952    -0.0887 H       
  43 H43            6.5711   -11.4833     0.1573 H       
  44 H44            8.8375   -10.9555     0.9547 H       
  45 H45            9.4488    -8.6387     1.5110 H       
  46 H46            7.7990    -6.8322     1.2613 H       
@<TRIPOS>BOND
   1    1    2 1
   2    1   28 1
   3    1   29 1
   4    1   30 1
   5    2   12 am
   6    2    3 1
   7    3    4 1
   8    3    9 1
   9    3    5 1
  10    5    6 1
  11    5   31 1
  12    5   32 1
  13    6    7 1
  14    6   33 1
  15    6   34 1
  16    7    8 1
  17    7   35 1
  18    7   36 1
  19    8    9 1
  20    8   37 1
  21    8   38 1
  22    9   10 1
  23    9   11 1
  24   11   12 am
  25   11   14 1
  26   12   13 2
  27   14   19 ar
  28   14   15 ar
  29   15   16 ar
  30   15   39 1
  31   16   17 ar
  32   16   40 1
  33   17   18 ar
  34   17   20 1
  35   18   19 ar
  36   18   41 1
  37   20   21 3
  38   21   22 1
  39   22   27 ar
  40   22   23 ar
  41   23   24 ar
  42   23   42 1
  43   24   25 ar
  44   24   43 1
  45   25   26 ar
  46   25   44 1
  47   26   27 ar
  48   26   45 1
  49   27   46 1

#	End of record

