#	Name: ASD01884258
#	Creating user name:	WinNT
#	Creation time:	15. 06. 2019 19:47

#	Modifying user name:	WinNT
#	Modification time:	15. 06. 2019 19:47

#	Program:	/corina/corina34_cracker 3.40 0067  02.08.2006

@<TRIPOS>MOLECULE
ASD01884258
  48   50    0    0    0
SMALL
NO_CHARGES


@<TRIPOS>ATOM
   1 C1            -0.0167     1.3806     0.0096 C.ar    
   2 C2             0.0021    -0.0041     0.0020 C.ar    
   3 C3            -1.1694    -0.7248     0.0098 C.ar    
   4 C4            -2.4121    -0.0739     0.0252 C.ar    
   5 C5            -2.4098     1.3217     0.0327 C.ar    
   6 C6            -1.2299     2.0433     0.0306 C.ar    
   7 N7            -3.6725    -0.6448     0.0342 N.am    
   8 C8            -4.7399     0.1594     0.0487 C.2     
   9 S9            -4.1086     1.8146     0.0516 S.3     
  10 Br10           1.6030     2.3565    -0.0006 Br      
  11 O11           -5.9095    -0.1774     0.0573 O.2     
  12 C12           -3.8337    -2.1009     0.0274 C.3     
  13 C13           -3.8757    -2.6161     1.4675 C.3     
  14 C14           -3.9185    -4.1459     1.4607 C.3     
  15 C15           -3.9256    -4.6589     2.9041 C.3     
  16 N16           -5.0392    -4.0273     3.6250 N.am    
  17 C17           -5.1442    -2.5619     3.6187 C.3     
  18 C18           -5.1234    -2.0723     2.1672 C.3     
  19 O19           -6.9629    -4.1859     4.9358 O.3     
  20 C20           -7.9033    -5.0566     5.6182 C.3     
  21 C21           -7.1615    -5.8846     6.6694 C.3     
  22 C22           -8.9786    -4.2097     6.3019 C.3     
  23 C23           -8.5610    -5.9929     4.6025 C.3     
  24 C24           -5.9474    -4.7780     4.2793 C.2     
  25 O25           -5.8498    -5.9892     4.2767 O.2     
  26 H26            0.9483    -0.5245    -0.0106 H       
  27 H27           -1.1321    -1.8041     0.0036 H       
  28 H28           -1.2563     3.1229     0.0365 H       
  29 H29           -4.7632    -2.3613    -0.4789 H       
  30 H30           -2.9941    -2.5570    -0.4972 H       
  31 H31           -2.9857    -2.2801     1.9995 H       
  32 H32           -4.8211    -4.4823     0.9505 H       
  33 H33           -3.0413    -4.5320     0.9416 H       
  34 H34           -4.0557    -5.7412     2.9066 H       
  35 H35           -2.9837    -4.4009     3.3882 H       
  36 H36           -6.0783    -2.2604     4.0927 H       
  37 H37           -4.3017    -2.1328     4.1611 H       
  38 H38           -5.1038    -0.9826     2.1511 H       
  39 H39           -6.0147    -2.4283     1.6505 H       
  40 H40           -6.6930    -5.2176     7.3930 H       
  41 H41           -7.8675    -6.5382     7.1817 H       
  42 H42           -6.3954    -6.4879     6.1823 H       
  43 H43           -9.5072    -3.6198     5.5531 H       
  44 H44           -9.6847    -4.8633     6.8142 H       
  45 H45           -8.5101    -3.5427     7.0256 H       
  46 H46           -7.7949    -6.5963     4.1154 H       
  47 H47           -9.2670    -6.6465     5.1148 H       
  48 H48           -9.0895    -5.4030     3.8536 H       
@<TRIPOS>BOND
   1    1    2 ar
   2    1   10 1
   3    1    6 ar
   4    2    3 ar
   5    2   26 1
   6    3    4 ar
   7    3   27 1
   8    4    5 ar
   9    4    7 1
  10    5    6 ar
  11    5    9 1
  12    6   28 1
  13    7    8 am
  14    7   12 1
  15    8    9 1
  16    8   11 2
  17   12   13 1
  18   12   29 1
  19   12   30 1
  20   13   14 1
  21   13   18 1
  22   13   31 1
  23   14   15 1
  24   14   32 1
  25   14   33 1
  26   15   16 1
  27   15   34 1
  28   15   35 1
  29   16   17 1
  30   16   24 am
  31   17   18 1
  32   17   36 1
  33   17   37 1
  34   18   38 1
  35   18   39 1
  36   19   20 1
  37   19   24 1
  38   20   21 1
  39   20   22 1
  40   20   23 1
  41   21   40 1
  42   21   41 1
  43   21   42 1
  44   22   43 1
  45   22   44 1
  46   22   45 1
  47   23   46 1
  48   23   47 1
  49   23   48 1
  50   24   25 2

#	End of record

