#	Name: ASD01903188
#	Creating user name:	WinNT
#	Creation time:	15. 06. 2019 19:54

#	Modifying user name:	WinNT
#	Modification time:	15. 06. 2019 19:54

#	Program:	/corina/corina34_cracker 3.40 0067  02.08.2006

@<TRIPOS>MOLECULE
ASD01903188
  29   31    0    0    0
SMALL
NO_CHARGES


@<TRIPOS>ATOM
   1 S1            -0.0242     1.7576    -0.0301 S.3     
   2 C2             0.0013    -0.0032    -0.0097 C.2     
   3 N3             1.2320    -0.4153    -0.0142 N.2     
   4 C4             2.1769     0.5142    -0.0322 C.2     
   5 C5             1.7377     1.7832    -0.0437 C.2     
   6 N6            -1.1185    -0.8216     0.0087 N.pl3   
   7 C7            -2.3869    -0.2623     0.1288 C.ar    
   8 N8            -2.5132     1.0403     0.3305 N.ar    
   9 C9            -3.6978     1.6104     0.4495 C.ar    
  10 C10           -4.8556     0.8616     0.3671 C.ar    
  11 C11           -4.7661    -0.5078     0.1562 C.ar    
  12 C12           -3.5110    -1.0759     0.0303 C.ar    
  13 C13            3.6232     0.1751    -0.0387 C.2     
  14 C14            4.6407     0.8841    -0.7055 C.2     
  15 N15            5.7763     0.2796    -0.4742 N.2     
  16 N16            5.5306    -0.8305     0.3430 N.pl3   
  17 C17            4.2071    -0.8759     0.6049 C.2     
  18 I18           -3.8234     3.6772     0.7681 I       
  19 C19            2.6029     3.0170    -0.0647 C.3     
  20 H20           -1.0174    -1.7837    -0.0621 H       
  21 H21           -5.8205     1.3364     0.4659 H       
  22 H22           -5.6564    -1.1153     0.0881 H       
  23 H23           -3.4051    -2.1379    -0.1347 H       
  24 H24            4.5062     1.7729    -1.3041 H       
  25 H25            6.1967    -1.4564     0.6678 H       
  26 H26            3.7013    -1.6149     1.2085 H       
  27 H27            2.8037     3.3024    -1.0973 H       
  28 H28            2.0867     3.8314     0.4436 H       
  29 H29            3.5440     2.8095     0.4445 H       
@<TRIPOS>BOND
   1    1    2 1
   2    1    5 1
   3    2    3 2
   4    2    6 1
   5    3    4 1
   6    4    5 2
   7    4   13 1
   8    5   19 1
   9    6    7 1
  10    6   20 1
  11    7    8 ar
  12    7   12 ar
  13    8    9 ar
  14    9   10 ar
  15    9   18 1
  16   10   11 ar
  17   10   21 1
  18   11   12 ar
  19   11   22 1
  20   12   23 1
  21   13   14 1
  22   13   17 2
  23   14   15 2
  24   14   24 1
  25   15   16 1
  26   16   17 1
  27   16   25 1
  28   17   26 1
  29   19   27 1
  30   19   28 1
  31   19   29 1

#	End of record

