#	Name: ASD01940449
#	Creating user name:	WinNT
#	Creation time:	15. 06. 2019 20:12

#	Modifying user name:	WinNT
#	Modification time:	15. 06. 2019 20:12

#	Program:	/corina/corina34_cracker 3.40 0067  02.08.2006

@<TRIPOS>MOLECULE
ASD01940449
  43   44    0    0    0
SMALL
NO_CHARGES


@<TRIPOS>ATOM
   1 C1            -0.0179     1.4692     0.0101 C.2     
   2 C2             0.0021    -0.0041     0.0020 C.ar    
   3 C3             1.2196    -0.6841    -0.0133 C.ar    
   4 C4             1.2295    -2.0813    -0.0204 C.ar    
   5 C5             0.0071    -2.7849    -0.0120 C.ar    
   6 C6            -1.1970    -2.0848     0.0032 C.ar    
   7 C7            -1.2026    -0.7206     0.0155 C.ar    
   8 O8             1.0261     2.0911     0.0035 O.2     
   9 O9            -1.1940     2.1271     0.0193 O.3     
  10 C10            2.5011    -2.8106    -0.0369 C.2     
  11 O11            3.5500    -2.2009    -0.0445 O.2     
  12 Br12           2.8470     0.2789    -0.0249 Br      
  13 S13            0.0031    -4.5468    -0.0215 S.3     
  14 C14           -1.7800    -4.8572    -0.0054 C.3     
  15 C15           -2.0313    -6.3431    -0.0109 C.ar    
  16 C16           -2.1346    -7.0311     1.1837 C.ar    
  17 C17           -2.3651    -8.3940     1.1786 C.ar    
  18 C18           -2.4927    -9.0690    -0.0210 C.ar    
  19 C19           -2.3902    -8.3810    -1.2155 C.ar    
  20 C20           -2.1640    -7.0172    -1.2104 C.ar    
  21 C21           -1.1377     3.5780     0.0269 C.3     
  22 C22           -0.4032     4.0664    -1.2232 C.3     
  23 C23           -2.5593     4.1435     0.0367 C.3     
  24 C24           -0.3913     4.0528     1.2752 C.3     
  25 H25           -2.1319    -2.6254     0.0092 H       
  26 H26           -2.1424    -0.1887     0.0315 H       
  27 H27            2.5041    -3.8906    -0.0424 H       
  28 H28           -2.2172    -4.4181     0.8913 H       
  29 H29           -2.2348    -4.4086    -0.8885 H       
  30 H30           -2.0350    -6.5037     2.1209 H       
  31 H31           -2.4452    -8.9316     2.1119 H       
  32 H32           -2.6720   -10.1340    -0.0249 H       
  33 H33           -2.4895    -8.9084    -2.1527 H       
  34 H34           -2.0877    -6.4790    -2.1436 H       
  35 H35           -0.9349     3.7281    -2.1125 H       
  36 H36           -0.3609     5.1556    -1.2175 H       
  37 H37            0.6096     3.6635    -1.2302 H       
  38 H38           -3.0827     3.7955     0.9273 H       
  39 H39           -2.5171     5.2326     0.0424 H       
  40 H40           -3.0911     3.8052    -0.8526 H       
  41 H41            0.6215     3.6499     1.2682 H       
  42 H42           -0.3491     5.1420     1.2809 H       
  43 H43           -0.9146     3.7049     2.1658 H       
@<TRIPOS>BOND
   1    1    2 1
   2    1    8 2
   3    1    9 1
   4    2    3 ar
   5    2    7 ar
   6    3    4 ar
   7    3   12 1
   8    4    5 ar
   9    4   10 1
  10    5    6 ar
  11    5   13 1
  12    6    7 ar
  13    6   25 1
  14    7   26 1
  15    9   21 1
  16   10   11 2
  17   10   27 1
  18   13   14 1
  19   14   15 1
  20   14   28 1
  21   14   29 1
  22   15   16 ar
  23   15   20 ar
  24   16   17 ar
  25   16   30 1
  26   17   18 ar
  27   17   31 1
  28   18   19 ar
  29   18   32 1
  30   19   20 ar
  31   19   33 1
  32   20   34 1
  33   21   22 1
  34   21   24 1
  35   21   23 1
  36   22   35 1
  37   22   36 1
  38   22   37 1
  39   23   38 1
  40   23   39 1
  41   23   40 1
  42   24   41 1
  43   24   42 1
  44   24   43 1

#	End of record

