#	Name: ASD02198549
#	Creating user name:	WinNT
#	Creation time:	15. 06. 2019 20:19

#	Modifying user name:	WinNT
#	Modification time:	15. 06. 2019 20:19

#	Program:	/corina/corina34_cracker 3.40 0067  02.08.2006

@<TRIPOS>MOLECULE
ASD02198549
  41   44    0    0    0
SMALL
NO_CHARGES


@<TRIPOS>ATOM
   1 C1            -0.1667     1.3473     0.1295 C.2     
   2 C2            -0.2234     0.0354     0.4727 C.2     
   3 N3             0.9063    -0.6695     0.7041 N.pl3   
   4 N4             2.0813    -0.1644     0.6187 N.2     
   5 C5             2.2788     1.0945     0.2946 C.2     
   6 C6             1.1104     1.9474     0.0227 C.2     
   7 C7             0.7873    -2.0183     1.0550 C.ar    
   8 C8            -0.5795    -3.8966     1.6508 C.ar    
   9 C9             0.5518    -4.6862     1.7502 C.ar    
  10 C10            1.8006    -4.1441     1.5081 C.ar    
  11 C11            1.9217    -2.8128     1.1609 C.ar    
  12 C12            3.6495     1.6437     0.2060 C.2     
  13 C13            4.1247     2.6090     1.0568 C.2     
  14 S14            5.7868     2.9929     0.6296 S.3     
  15 C15            5.7603     1.8258    -0.6841 C.2     
  16 C16            4.5749     1.2235    -0.7442 C.2     
  17 C17            3.3610     3.2284     2.1575 C.ar    
  18 C18            2.6452     2.4288     3.0516 C.ar    
  19 O19            1.2378     3.1237    -0.2828 O.2     
  20 C20            3.3553     4.6165     2.3133 C.ar    
  21 C21            2.6394     5.1885     3.3442 C.ar    
  22 C22            1.9279     4.3906     4.2229 C.ar    
  23 C23            1.9337     3.0145     4.0779 C.ar    
  24 C24           -0.4656    -2.5650     1.3041 C.ar    
  25 F25           -1.8112    -5.8690     2.1268 F       
  26 F26           -2.4955    -3.8952     3.0517 F       
  27 C27           -1.9384    -4.4919     1.9155 C.3     
  28 F28           -2.7700    -4.2639     0.8139 F       
  29 H29           -1.0666     1.9135    -0.0603 H       
  30 H30           -1.1834    -0.4512     0.5624 H       
  31 H31            0.4596    -5.7285     2.0175 H       
  32 H32            2.6819    -4.7634     1.5866 H       
  33 H33            2.8974    -2.3900     0.9716 H       
  34 H34            6.5893     1.6234    -1.3461 H       
  35 H35            4.3457     0.4685    -1.4816 H       
  36 H36            2.6486     1.3547     2.9395 H       
  37 H37            3.9105     5.2403     1.6285 H       
  38 H38            2.6344     6.2615     3.4661 H       
  39 H39            1.3693     4.8438     5.0285 H       
  40 H40            1.3761     2.3978     4.7673 H       
  41 H41           -1.3493    -1.9489     1.2270 H       
@<TRIPOS>BOND
   1    1    2 2
   2    1    6 1
   3    1   29 1
   4    2    3 1
   5    2   30 1
   6    3    4 1
   7    3    7 1
   8    4    5 2
   9    5    6 1
  10    5   12 1
  11    6   19 2
  12    7   24 ar
  13    7   11 ar
  14    8    9 ar
  15    8   27 1
  16    8   24 ar
  17    9   10 ar
  18    9   31 1
  19   10   11 ar
  20   10   32 1
  21   11   33 1
  22   12   13 2
  23   12   16 1
  24   13   14 1
  25   13   17 1
  26   14   15 1
  27   15   16 2
  28   15   34 1
  29   16   35 1
  30   17   20 ar
  31   17   18 ar
  32   18   23 ar
  33   18   36 1
  34   20   21 ar
  35   20   37 1
  36   21   22 ar
  37   21   38 1
  38   22   23 ar
  39   22   39 1
  40   23   40 1
  41   24   41 1
  42   25   27 1
  43   26   27 1
  44   27   28 1

#	End of record

