#	Name: ASD01913108
#	Creating user name:	WinNT
#	Creation time:	15. 06. 2019 20:00

#	Modifying user name:	WinNT
#	Modification time:	15. 06. 2019 20:00

#	Program:	/corina/corina34_cracker 3.40 0067  02.08.2006

@<TRIPOS>MOLECULE
ASD01913108
  47   48    0    0    0
SMALL
NO_CHARGES


@<TRIPOS>ATOM
   1 C1            -0.0168     1.3871     0.0097 C.ar    
   2 C2             0.0021    -0.0041     0.0020 C.ar    
   3 N3             1.1469    -0.6696    -0.0125 N.ar    
   4 C4             2.3089    -0.0510    -0.0203 C.ar    
   5 C5             2.3721     1.3432    -0.0134 C.ar    
   6 C6             1.1777     2.0780     0.0020 C.ar    
   7 N7             4.8183     1.3178    -0.0359 N.am    
   8 C8             3.6767     2.0340    -0.0216 C.2     
   9 O9             3.7212     3.2489    -0.0155 O.2     
  10 O10           -1.1677    -0.6878     0.0100 O.3     
  11 C11           -1.0854    -2.1144     0.0015 C.3     
  12 C12            6.1130     2.0034    -0.0441 C.3     
  13 C13           -2.2960    -2.6994     0.7317 C.3     
  14 C14           -2.2435    -2.2997     2.2076 C.3     
  15 C15            7.1810     1.0835     0.5508 C.3     
  16 C16            8.5331     1.7995     0.5422 C.3     
  17 C17            8.9118     2.1570    -0.8964 C.3     
  18 C18            7.8438     3.0769    -1.4913 C.3     
  19 C19            6.4917     2.3609    -1.4828 C.3     
  20 C20           -1.0704    -2.6158    -1.4439 C.3     
  21 C21           -3.4541    -2.8848     2.9378 C.3     
  22 H22           -0.9559     1.9203     0.0170 H       
  23 H23            3.2219    -0.6278    -0.0317 H       
  24 H24            1.1924     3.1578     0.0073 H       
  25 H25            4.7828     0.3485    -0.0408 H       
  26 H26           -0.1709    -2.4286     0.5046 H       
  27 H27            6.0456     2.9142     0.5508 H       
  28 H28           -3.2118    -2.3143     0.2833 H       
  29 H29           -2.2800    -3.7862     0.6488 H       
  30 H30           -1.3277    -2.6849     2.6560 H       
  31 H31           -2.2595    -1.2130     2.2905 H       
  32 H32            6.9112     0.8288     1.5757 H       
  33 H33            7.2484     0.1727    -0.0442 H       
  34 H34            8.4657     2.7103     1.1372 H       
  35 H35            9.2940     1.1441     0.9661 H       
  36 H36            9.8751     2.6670    -0.9025 H       
  37 H37            8.9792     1.2462    -1.4914 H       
  38 H38            7.7764     3.9877    -0.8964 H       
  39 H39            8.1136     3.3316    -2.5163 H       
  40 H40            6.5591     1.4501    -2.0778 H       
  41 H41            5.7308     3.0163    -1.9066 H       
  42 H42           -1.9849    -2.3016    -1.9470 H       
  43 H43           -0.2080    -2.1990    -1.9641 H       
  44 H44           -1.0076    -3.7040    -1.4504 H       
  45 H45           -3.4381    -3.9715     2.8549 H       
  46 H46           -3.4167    -2.6000     3.9893 H       
  47 H47           -4.3699    -2.4996     2.4894 H       
@<TRIPOS>BOND
   1    1    2 ar
   2    1    6 ar
   3    1   22 1
   4    2    3 ar
   5    2   10 1
   6    3    4 ar
   7    4    5 ar
   8    4   23 1
   9    5    6 ar
  10    5    8 1
  11    6   24 1
  12    7    8 am
  13    7   12 1
  14    7   25 1
  15    8    9 2
  16   10   11 1
  17   11   13 1
  18   11   20 1
  19   11   26 1
  20   12   15 1
  21   12   19 1
  22   12   27 1
  23   13   14 1
  24   13   28 1
  25   13   29 1
  26   14   21 1
  27   14   30 1
  28   14   31 1
  29   15   16 1
  30   15   32 1
  31   15   33 1
  32   16   17 1
  33   16   34 1
  34   16   35 1
  35   17   18 1
  36   17   36 1
  37   17   37 1
  38   18   19 1
  39   18   38 1
  40   18   39 1
  41   19   40 1
  42   19   41 1
  43   20   42 1
  44   20   43 1
  45   20   44 1
  46   21   45 1
  47   21   46 1
  48   21   47 1

#	End of record

