#	Name: ASD02039338
#	Creating user name:	WinNT
#	Creation time:	15. 06. 2019 20:18

#	Modifying user name:	WinNT
#	Modification time:	15. 06. 2019 20:18

#	Program:	/corina/corina34_cracker 3.40 0067  02.08.2006

@<TRIPOS>MOLECULE
ASD02039338
  50   52    0    0    0
SMALL
NO_CHARGES


@<TRIPOS>ATOM
   1 C1             0.1358     1.1849    -0.3164 C.ar    
   2 C2             0.5176    -0.0930     0.0499 C.ar    
   3 C3            -0.3865    -1.1373    -0.0185 C.ar    
   4 C4            -2.0714     0.3819    -0.8130 C.ar    
   5 C5            -1.1531     1.4273    -0.7472 C.ar    
   6 C6            -3.4579     0.6365    -1.2757 C.ar    
   7 C7             1.1277     2.3169    -0.2392 C.3     
   8 N8             1.9438     2.3348    -1.4557 N.am    
   9 C9             1.4502     3.0089    -2.6591 C.3     
  10 C10            3.1487     1.7311    -1.4677 C.2     
  11 C11            3.6004     0.9646    -0.2934 C.2     
  12 C12            4.7333     0.2091    -0.2106 C.2     
  13 N13            2.9680     0.8862     0.9053 N.2     
  14 C14            3.6608     0.1199     1.6973 C.2     
  15 N15            4.7638    -0.3179     1.0360 N.pl3   
  16 O16            3.8632     1.8190    -2.4480 O.2     
  17 C17            5.7999    -1.2024     1.5749 C.3     
  18 C18           -4.0335    -0.1623    -2.2677 C.ar    
  19 C19           -1.6784    -0.9082    -0.4536 C.ar    
  20 C20            2.4331     4.1081    -3.0673 C.3     
  21 C21            1.3202     1.9931    -3.7957 C.3     
  22 C22           -4.2093     1.6720    -0.7243 C.ar    
  23 N23           -5.4408     1.8985    -1.1337 N.ar    
  24 C24           -6.0087     1.1650    -2.0712 C.ar    
  25 C25           -5.3301     0.1158    -2.6643 C.ar    
  26 C26           -5.9935    -0.7125    -3.7343 C.3     
  27 F27           -7.2889    -0.2339    -3.9584 F       
  28 F28           -5.2529    -0.6253    -4.9179 F       
  29 F29           -6.0548    -2.0473    -3.3198 F       
  30 F30           -2.5614    -1.9286    -0.5208 F       
  31 H31            1.5260    -0.2761     0.3905 H       
  32 H32           -0.0826    -2.1332     0.2682 H       
  33 H33           -1.4517     2.4276    -1.0240 H       
  34 H34            0.5934     3.2624    -0.1462 H       
  35 H35            1.7721     2.1767     0.6286 H       
  36 H36            0.4754     3.4512    -2.4538 H       
  37 H37            5.4655     0.0598    -0.9904 H       
  38 H38            3.4022    -0.1257     2.7167 H       
  39 H39            5.5318    -2.2399     1.3752 H       
  40 H40            6.7543    -0.9758     1.0996 H       
  41 H41            5.8845    -1.0496     2.6508 H       
  42 H42           -3.4805    -0.9757    -2.7138 H       
  43 H43            3.4238     3.6758    -3.2078 H       
  44 H44            2.1006     4.5650    -3.9994 H       
  45 H45            2.4752     4.8666    -2.2856 H       
  46 H46            0.5860     1.2349    -3.5233 H       
  47 H47            0.9966     2.5027    -4.7033 H       
  48 H48            2.2855     1.5178    -3.9704 H       
  49 H49           -3.7784     2.2945     0.0460 H       
  50 H50           -7.0208     1.3843    -2.3775 H       
@<TRIPOS>BOND
   1    1    2 ar
   2    1    7 1
   3    1    5 ar
   4    2    3 ar
   5    2   31 1
   6    3   19 ar
   7    3   32 1
   8    4    5 ar
   9    4    6 1
  10    4   19 ar
  11    5   33 1
  12    6   18 ar
  13    6   22 ar
  14    7    8 1
  15    7   34 1
  16    7   35 1
  17    8    9 1
  18    8   10 am
  19    9   21 1
  20    9   20 1
  21    9   36 1
  22   10   11 1
  23   10   16 2
  24   11   12 2
  25   11   13 1
  26   12   15 1
  27   12   37 1
  28   13   14 2
  29   14   15 1
  30   14   38 1
  31   15   17 1
  32   17   39 1
  33   17   40 1
  34   17   41 1
  35   18   25 ar
  36   18   42 1
  37   19   30 1
  38   20   43 1
  39   20   44 1
  40   20   45 1
  41   21   46 1
  42   21   47 1
  43   21   48 1
  44   22   23 ar
  45   22   49 1
  46   23   24 ar
  47   24   25 ar
  48   24   50 1
  49   25   26 1
  50   26   27 1
  51   26   28 1
  52   26   29 1

#	End of record

