#	Name: ASD01410962
#	Creating user name:	WinNT
#	Creation time:	15. 06. 2019 19:19

#	Modifying user name:	WinNT
#	Modification time:	15. 06. 2019 19:19

#	Program:	/corina/corina34_cracker 3.40 0067  02.08.2006

@<TRIPOS>MOLECULE
ASD01410962
  53   55    0    0    0
SMALL
NO_CHARGES


@<TRIPOS>ATOM
   1 C1             0.0965     1.8171     0.0609 C.ar    
   2 P2             0.2772     0.0129     0.1151 P.3     
   3 N3             0.4469    -0.4729     1.6722 N.pl3   
   4 O4            -0.9246    -0.6211    -0.4714 O.2     
   5 C5             0.6022    -1.8247     1.9666 C.2     
   6 C6             0.7491    -2.2961     3.2508 C.2     
   7 S7             0.9173    -4.0459     3.2211 S.3     
   8 C8             0.7819    -4.0690     1.4686 C.2     
   9 C9             0.6159    -2.8017     0.9985 C.2     
  10 C10            0.7627    -1.4969     4.4146 C.2     
  11 O11            0.6379    -0.2891     4.3251 O.2     
  12 O12            0.9140    -2.0720     5.6268 O.3     
  13 C13            0.8344    -5.2846     0.6299 C.ar    
  14 C14            1.0026    -6.5377     1.2218 C.ar    
  15 C15            1.0510    -7.6686     0.4338 C.ar    
  16 C16            0.9336    -7.5628    -0.9421 C.ar    
  17 C17            0.7670    -6.3225    -1.5351 C.ar    
  18 C18            0.7104    -5.1850    -0.7570 C.ar    
  19 O19            1.5785    -0.4216    -0.7275 O.3     
  20 C20            1.7335    -0.1407    -2.1201 C.3     
  21 Cl21           0.9960    -8.9907    -1.9274 Cl      
  22 C22            2.9781     0.7240    -2.3304 C.3     
  23 C23            1.2000     2.6156    -0.1759 C.ar    
  24 C24            1.0623     3.9902    -0.2171 C.ar    
  25 C25           -0.1791     4.5668    -0.0221 C.ar    
  26 C26           -1.2825     3.7685     0.2137 C.ar    
  27 C27           -1.1455     2.3932     0.2506 C.ar    
  28 C28           -2.3494     1.5225     0.5025 C.3     
  29 C29           -0.3291     6.0656    -0.0660 C.3     
  30 C30            1.8881    -1.4532    -2.8910 C.3     
  31 H31            0.4390     0.1815     2.3881 H       
  32 H32            0.5072    -2.5807    -0.0531 H       
  33 H33            0.9107    -1.4448     6.3628 H       
  34 H34            1.0950    -6.6214     2.2946 H       
  35 H35            1.1810    -8.6386     0.8905 H       
  36 H36            0.6764    -6.2462    -2.6086 H       
  37 H37            0.5754    -4.2188    -1.2202 H       
  38 H38            0.8550     0.3926    -2.4831 H       
  39 H39            3.0964     0.9382    -3.3926 H       
  40 H40            2.8680     1.6590    -1.7812 H       
  41 H41            3.8567     0.1906    -1.9673 H       
  42 H42            2.1697     2.1652    -0.3283 H       
  43 H43            1.9244     4.6140    -0.4014 H       
  44 H44           -2.2521     4.2189     0.3665 H       
  45 H45           -2.3943     1.2615     1.5599 H       
  46 H46           -3.2537     2.0632     0.2231 H       
  47 H47           -2.2712     0.6131    -0.0932 H       
  48 H48           -0.5462     6.3792    -1.0871 H       
  49 H49           -1.1464     6.3684     0.5886 H       
  50 H50            0.5968     6.5334     0.2686 H       
  51 H51            1.0015    -2.0692    -2.7411 H       
  52 H52            2.0064    -1.2389    -3.9531 H       
  53 H53            2.7667    -1.9865    -2.5279 H       
@<TRIPOS>BOND
   1    1    2 1
   2    1   23 ar
   3    1   27 ar
   4    2    3 1
   5    2    4 2
   6    2   19 1
   7    3    5 1
   8    3   31 1
   9    5    6 2
  10    5    9 1
  11    6    7 1
  12    6   10 1
  13    7    8 1
  14    8    9 2
  15    8   13 1
  16    9   32 1
  17   10   11 2
  18   10   12 1
  19   12   33 1
  20   13   14 ar
  21   13   18 ar
  22   14   15 ar
  23   14   34 1
  24   15   16 ar
  25   15   35 1
  26   16   17 ar
  27   16   21 1
  28   17   18 ar
  29   17   36 1
  30   18   37 1
  31   19   20 1
  32   20   22 1
  33   20   30 1
  34   20   38 1
  35   22   39 1
  36   22   40 1
  37   22   41 1
  38   23   24 ar
  39   23   42 1
  40   24   25 ar
  41   24   43 1
  42   25   26 ar
  43   25   29 1
  44   26   27 ar
  45   26   44 1
  46   27   28 1
  47   28   45 1
  48   28   46 1
  49   28   47 1
  50   29   48 1
  51   29   49 1
  52   29   50 1
  53   30   51 1
  54   30   52 1
  55   30   53 1

#	End of record

