#	Name: ASD01884340
#	Creating user name:	WinNT
#	Creation time:	15. 06. 2019 19:48

#	Modifying user name:	WinNT
#	Modification time:	15. 06. 2019 19:48

#	Program:	/corina/corina34_cracker 3.40 0067  02.08.2006

@<TRIPOS>MOLECULE
ASD01884340
  47   50    0    0    0
SMALL
NO_CHARGES


@<TRIPOS>ATOM
   1 C1            -0.8088    -0.1746     1.2343 C.2     
   2 C2             0.0099    -0.0007     0.1057 C.2     
   3 C3            -0.4055     0.8913    -0.9003 C.2     
   4 C4            -1.5716     1.5606    -0.7697 C.2     
   5 N5            -2.3643     1.3936     0.3209 N.am    
   6 C6            -2.0218     0.5498     1.3120 C.2     
   7 O7            -2.7508     0.4177     2.2806 O.2     
   8 C8            -3.6200     2.1420     0.4171 C.3     
   9 C9            -0.4259    -1.0718     2.2826 C.1     
  10 N10           -0.1222    -1.7836     3.1143 N.1     
  11 N11            2.3740    -0.0068    -0.1246 N.3     
  12 C12            2.7865     0.5464     1.1729 C.3     
  13 C13            4.1459     1.2333     1.0226 C.3     
  14 N14            4.0471     2.2928     0.0091 N.3     
  15 C15            3.6346     1.7396    -1.2884 C.3     
  16 C16            2.2751     1.0527    -1.1381 C.3     
  17 C17            5.2406     2.9845    -0.1035 C.ar    
  18 C18           -4.7491     1.3273    -0.2170 C.3     
  19 C19           -6.1691     1.8875    -0.1130 C.3     
  20 C20           -5.4334     1.9120    -1.4543 C.3     
  21 N21            1.1960    -0.6894    -0.0135 N.pl3   
  22 N22            5.3322     3.9788    -0.9743 N.ar    
  23 C23            6.4583     4.6600    -1.1067 C.ar    
  24 C24            7.5492     4.3222    -0.3212 C.ar    
  25 C25            7.4189     3.2768     0.5794 C.ar    
  26 N26            6.2628     2.6399     0.6659 N.ar    
  27 H27            0.2079     1.0410    -1.7764 H       
  28 H28           -1.8800     2.2429    -1.5481 H       
  29 H29           -3.8518     2.3295     1.4655 H       
  30 H30           -3.5181     3.0917    -0.1080 H       
  31 H31            2.0472     1.2729     1.5101 H       
  32 H32            2.8648    -0.2589     1.9033 H       
  33 H33            4.4404     1.6695     1.9771 H       
  34 H34            4.8910     0.5010     0.7117 H       
  35 H35            3.5563     2.5449    -2.0188 H       
  36 H36            4.3738     1.0131    -1.6256 H       
  37 H37            1.9806     0.6165    -2.0926 H       
  38 H38            1.5300     1.7850    -0.8272 H       
  39 H39           -4.6306     0.2447    -0.1714 H       
  40 H40           -6.9848     1.1735     0.0007 H       
  41 H41           -6.2988     2.8365     0.4072 H       
  42 H42           -5.0791     2.8771    -1.8165 H       
  43 H43           -5.7651     1.2140    -2.2231 H       
  44 H44            1.1952    -1.6594    -0.0185 H       
  45 H45            6.5271     5.4693    -1.8185 H       
  46 H46            8.4807     4.8617    -0.4093 H       
  47 H47            8.2500     2.9883     1.2059 H       
@<TRIPOS>BOND
   1    1    2 2
   2    1    9 1
   3    1    6 1
   4    2    3 1
   5    2   21 1
   6    3    4 2
   7    3   27 1
   8    4    5 1
   9    4   28 1
  10    5    6 am
  11    5    8 1
  12    6    7 2
  13    8   18 1
  14    8   29 1
  15    8   30 1
  16    9   10 3
  17   11   12 1
  18   11   16 1
  19   11   21 1
  20   12   13 1
  21   12   31 1
  22   12   32 1
  23   13   14 1
  24   13   33 1
  25   13   34 1
  26   14   15 1
  27   14   17 1
  28   15   16 1
  29   15   35 1
  30   15   36 1
  31   16   37 1
  32   16   38 1
  33   17   22 ar
  34   17   26 ar
  35   18   19 1
  36   18   20 1
  37   18   39 1
  38   19   20 1
  39   19   40 1
  40   19   41 1
  41   20   42 1
  42   20   43 1
  43   21   44 1
  44   22   23 ar
  45   23   24 ar
  46   23   45 1
  47   24   25 ar
  48   24   46 1
  49   25   26 ar
  50   25   47 1

#	End of record

