#	Name: ASD01811660
#	Creating user name:	WinNT
#	Creation time:	15. 06. 2019 19:27

#	Modifying user name:	WinNT
#	Modification time:	15. 06. 2019 19:27

#	Program:	/corina/corina34_cracker 3.40 0067  02.08.2006

@<TRIPOS>MOLECULE
ASD01811660
  56   60    0    0    0
SMALL
NO_CHARGES


@<TRIPOS>ATOM
   1 C1            -0.0170     1.4020     0.0098 C.ar    
   2 C2             0.0021    -0.0041     0.0020 C.ar    
   3 C3             1.1935    -0.6621    -0.0129 C.ar    
   4 C4             2.3985     0.0371    -0.0206 C.ar    
   5 C5             2.4193     1.3987    -0.0135 C.ar    
   6 C6             1.2110     2.1136     0.0018 C.ar    
   7 C7             1.1972     3.5204     0.0095 C.ar    
   8 C8             0.0184     4.1916     0.0248 C.ar    
   9 C9            -1.2088     3.4997     0.0329 C.ar    
  10 C10           -1.2213     2.1139     0.0309 C.ar    
  11 C11            2.4962     4.2842     0.0012 C.3     
  12 C12            2.9785     4.4397    -1.4180 C.ar    
  13 C13            2.5973     5.5410    -2.1717 C.ar    
  14 C14            3.0633     5.6452    -3.4709 C.ar    
  15 C15            3.8915     4.6501    -3.9735 C.ar    
  16 N16            4.2329     3.6150    -3.2240 N.ar    
  17 C17            3.8091     3.4908    -1.9808 C.ar    
  18 O18            4.3546     4.7403    -5.2456 O.3     
  19 C19            5.2023     3.6851    -5.7038 C.3     
  20 C20           -2.6695     1.6939     0.0495 C.3     
  21 N21           -3.4543     2.9337     0.0674 N.am    
  22 C22           -2.6059     3.9761     0.0492 C.2     
  23 C23           -4.9166     3.0207     0.0886 C.3     
  24 C24           -5.3651     3.7641     1.3484 C.3     
  25 C25           -6.8923     3.8550     1.3704 C.3     
  26 C26           -7.3761     4.6121     0.1320 C.3     
  27 C27           -6.9276     3.8687    -1.1278 C.3     
  28 C28           -5.4004     3.7778    -1.1498 C.3     
  29 O29           -4.9815     3.0834    -2.3265 O.3     
  30 O30           -2.9411     5.1445     0.0598 O.2     
  31 H31           -0.9243    -0.5592     0.0082 H       
  32 H32            1.2048    -1.7421    -0.0184 H       
  33 H33            3.3302    -0.5090    -0.0321 H       
  34 H34            3.3615     1.9266    -0.0193 H       
  35 H35            0.0207     5.2716     0.0313 H       
  36 H36            2.3416     5.2689     0.4423 H       
  37 H37            3.2417     3.7396     0.5807 H       
  38 H38            1.9516     6.2993    -1.7540 H       
  39 H39            2.7862     6.4888    -4.0857 H       
  40 H40            4.1120     2.6340    -1.3973 H       
  41 H41            6.0892     3.6314    -5.0724 H       
  42 H42            4.6635     2.7389    -5.6546 H       
  43 H43            5.5008     3.8802    -6.7338 H       
  44 H44           -2.9035     1.1150    -0.8439 H       
  45 H45           -2.8777     1.1055     0.9432 H       
  46 H46           -5.3404     2.0164     0.0891 H       
  47 H47           -5.0204     3.2248     2.2306 H       
  48 H48           -4.9413     4.7684     1.3479 H       
  49 H49           -7.3160     2.8507     1.3709 H       
  50 H50           -7.2118     4.3846     2.2679 H       
  51 H51           -8.4640     4.6768     0.1478 H       
  52 H52           -6.9523     5.6163     0.1315 H       
  53 H53           -7.3513     2.8644    -1.1273 H       
  54 H54           -7.2722     4.4080    -2.0100 H       
  55 H55           -4.9767     4.7820    -1.1503 H       
  56 H56           -5.2541     3.5077    -3.1516 H       
@<TRIPOS>BOND
   1    1    2 ar
   2    1    6 ar
   3    1   10 ar
   4    2    3 ar
   5    2   31 1
   6    3    4 ar
   7    3   32 1
   8    4    5 ar
   9    4   33 1
  10    5    6 ar
  11    5   34 1
  12    6    7 ar
  13    7    8 ar
  14    7   11 1
  15    8    9 ar
  16    8   35 1
  17    9   22 1
  18    9   10 ar
  19   10   20 1
  20   11   12 1
  21   11   36 1
  22   11   37 1
  23   12   13 ar
  24   12   17 ar
  25   13   14 ar
  26   13   38 1
  27   14   15 ar
  28   14   39 1
  29   15   16 ar
  30   15   18 1
  31   16   17 ar
  32   17   40 1
  33   18   19 1
  34   19   41 1
  35   19   42 1
  36   19   43 1
  37   20   21 1
  38   20   44 1
  39   20   45 1
  40   21   22 am
  41   21   23 1
  42   22   30 2
  43   23   24 1
  44   23   28 1
  45   23   46 1
  46   24   25 1
  47   24   47 1
  48   24   48 1
  49   25   26 1
  50   25   49 1
  51   25   50 1
  52   26   27 1
  53   26   51 1
  54   26   52 1
  55   27   28 1
  56   27   53 1
  57   27   54 1
  58   28   29 1
  59   28   55 1
  60   29   56 1

#	End of record

