#	Name: ASD00960129
#	Creating user name:	WinNT
#	Creation time:	15. 06. 2019 18:53

#	Modifying user name:	WinNT
#	Modification time:	15. 06. 2019 18:53

#	Program:	/corina/corina34_cracker 3.40 0067  02.08.2006

@<TRIPOS>MOLECULE
ASD00960129
  40   43    0    0    0
SMALL
NO_CHARGES


@<TRIPOS>ATOM
   1 C1             0.7607     2.2491    -0.4461 C.3     
   2 C2             0.4410     0.7852    -0.0707 C.3     
   3 O3             0.0511     0.1622    -1.3140 O.3     
   4 C4            -0.7623     1.1438    -1.9927 C.3     
   5 C5            -0.8182     0.8443    -3.4921 C.3     
   6 C6             1.6640     0.1093     0.4938 C.2     
   7 C7             2.0600     0.1622     1.7888 C.2     
   8 N8             2.5338    -0.6494    -0.2124 N.pl3   
   9 C9             3.5240    -1.0973     0.6405 C.2     
  10 C10            3.2419    -0.5945     1.9107 C.2     
  11 N11            2.5969    -1.0293    -1.5608 N.2     
  12 C12            3.5730    -1.7868    -1.9807 C.2     
  13 N13            4.5330    -2.2247    -1.1685 N.2     
  14 C14            4.5480    -1.9123     0.1184 C.2     
  15 N15            5.5558    -2.3796     0.9390 N.pl3   
  16 C16           -0.0491     2.4905    -1.7396 C.3     
  17 O17            2.1591     2.4087    -0.6937 O.3     
  18 C18            4.0282    -0.8121     3.1412 C.2     
  19 O19           -1.5184    -0.3828    -3.7069 O.3     
  20 N20            5.3962    -0.7262     3.2706 N.pl3   
  21 C21            5.6902    -1.0009     4.5682 C.2     
  22 N22            4.5800    -1.2432     5.2109 N.2     
  23 C23            3.5424    -1.1314     4.3731 C.2     
  24 O24           -1.0052     3.5344    -1.5444 O.3     
  25 *25           -1.3638     4.2123    -2.7275 Du      
  26 H26            0.4340     2.9259     0.3434 H       
  27 H27           -0.3792     0.7477     0.6461 H       
  28 H28           -1.7671     1.1613    -1.5707 H       
  29 H29           -1.3377     1.6536    -4.0051 H       
  30 H30            0.1954     0.7575    -3.8834 H       
  31 H31            1.5587     0.6910     2.5859 H       
  32 H32            3.6032    -2.0685    -3.0229 H       
  33 H33            6.3365    -2.8069     0.5531 H       
  34 H34            5.4830    -2.2805     1.9011 H       
  35 H35            0.6171     2.7315    -2.5680 H       
  36 H36            2.4157     3.3095    -0.9338 H       
  37 H37           -1.5923    -0.6358    -4.6373 H       
  38 H38            6.0299    -0.5108     2.5685 H       
  39 H39            6.6809    -1.0166     4.9980 H       
  40 H40            2.5028    -1.2765     4.6273 H       
@<TRIPOS>BOND
   1    1    2 1
   2    1   17 1
   3    1   16 1
   4    1   26 1
   5    2    3 1
   6    2    6 1
   7    2   27 1
   8    3    4 1
   9    4   16 1
  10    4    5 1
  11    4   28 1
  12    5   19 1
  13    5   29 1
  14    5   30 1
  15    6    7 2
  16    6    8 1
  17    7   10 1
  18    7   31 1
  19    8    9 1
  20    8   11 1
  21    9   10 2
  22    9   14 1
  23   10   18 1
  24   11   12 2
  25   12   13 1
  26   12   32 1
  27   13   14 2
  28   14   15 1
  29   15   33 1
  30   15   34 1
  31   16   24 1
  32   16   35 1
  33   17   36 1
  34   18   20 1
  35   18   23 2
  36   19   37 1
  37   20   21 1
  38   20   38 1
  39   21   22 2
  40   21   39 1
  41   22   23 1
  42   23   40 1
  43   24   25 1

#	End of record

