#	Name: ASD01420202
#	Creating user name:	WinNT
#	Creation time:	15. 06. 2019 19:20

#	Modifying user name:	WinNT
#	Modification time:	15. 06. 2019 19:20

#	Program:	/corina/corina34_cracker 3.40 0067  02.08.2006

@<TRIPOS>MOLECULE
ASD01420202
  29   29    0    0    0
SMALL
NO_CHARGES


@<TRIPOS>ATOM
   1 C1            -0.0180     1.4603     0.1667 C.2     
   2 C2             0.0052    -0.0121     0.0879 C.ar    
   3 C3             1.2256    -0.6938     0.0654 C.ar    
   4 C4             1.2427    -2.0683    -0.0082 C.ar    
   5 C5             0.0487    -2.7786    -0.0607 C.ar    
   6 C6            -1.1668    -2.1048    -0.0391 C.ar    
   7 C7            -1.1930    -0.7304     0.0412 C.ar    
   8 O8             1.0245     2.0827     0.2122 O.2     
   9 O9            -1.1952     2.1157     0.1826 O.3     
  10 O10            0.0700    -4.1334    -0.1337 O.3     
  11 C11            2.5576    -2.8042    -0.0325 C.3     
  12 C12            3.2685    -2.5199    -1.3305 C.2     
  13 C13            3.6485    -3.5099    -2.0997 C.2     
  14 C14            3.5424    -1.0967    -1.7436 C.3     
  15 C15            3.4256    -2.3364     1.1375 C.3     
  16 H16            2.1536    -0.1428     0.1055 H       
  17 H17           -2.0921    -2.6602    -0.0808 H       
  18 H18           -2.1379    -0.2078     0.0628 H       
  19 H19           -1.1598     3.0806     0.2351 H       
  20 H20            0.0658    -4.5738     0.7272 H       
  21 H21            2.3762    -3.8754     0.0554 H       
  22 H22            3.4522    -4.5298    -1.8036 H       
  23 H23            4.1579    -3.3061    -3.0299 H       
  24 H24            4.4652    -0.7538    -1.2758 H       
  25 H25            3.6440    -1.0462    -2.8277 H       
  26 H26            2.7160    -0.4608    -1.4261 H       
  27 H27            2.9114    -2.5420     2.0763 H       
  28 H28            4.3766    -2.8686     1.1199 H       
  29 H29            3.6070    -1.2652     1.0496 H       
@<TRIPOS>BOND
   1    1    2 1
   2    1    8 2
   3    1    9 1
   4    2    3 ar
   5    2    7 ar
   6    3    4 ar
   7    3   16 1
   8    4    5 ar
   9    4   11 1
  10    5    6 ar
  11    5   10 1
  12    6    7 ar
  13    6   17 1
  14    7   18 1
  15    9   19 1
  16   10   20 1
  17   11   12 1
  18   11   15 1
  19   11   21 1
  20   12   13 2
  21   12   14 1
  22   13   22 1
  23   13   23 1
  24   14   24 1
  25   14   25 1
  26   14   26 1
  27   15   27 1
  28   15   28 1
  29   15   29 1

#	End of record

