#	Name: ASD01901139
#	Creating user name:	WinNT
#	Creation time:	15. 06. 2019 19:53

#	Modifying user name:	WinNT
#	Modification time:	15. 06. 2019 19:53

#	Program:	/corina/corina34_cracker 3.40 0067  02.08.2006

@<TRIPOS>MOLECULE
ASD01901139
  46   49    0    0    0
SMALL
NO_CHARGES


@<TRIPOS>ATOM
   1 C1            -0.0166     1.3750     0.0096 C.ar    
   2 C2             0.0021    -0.0041     0.0020 C.ar    
   3 C3             1.2078    -0.6830    -0.0131 C.ar    
   4 C4             2.4027     0.0149    -0.0208 C.ar    
   5 C5             2.3997     1.3941    -0.0129 C.ar    
   6 C6             1.1860     2.0866     0.0019 C.ar    
   7 C7             1.1748     3.5185     0.0093 C.1     
   8 C8             1.1655     4.6925     0.0153 C.1     
   9 C9             1.1543     6.1244     0.0226 C.ar    
  10 C10            2.3584     6.8350     0.0149 C.ar    
  11 C11            2.3428     8.2133     0.0221 C.ar    
  12 C12            1.1310     8.8967     0.0373 C.ar    
  13 C13           -0.0674     8.1936     0.0450 C.ar    
  14 C14           -0.0606     6.8156     0.0317 C.ar    
  15 N15            1.1191    10.2976     0.0455 N.am    
  16 C16            1.1246    10.9404     1.2234 C.2     
  17 N17            0.8973    12.2646     1.3054 N.am    
  18 C18            0.5454    13.0210     0.1047 C.3     
  19 C19            1.2047    12.4610    -1.1549 C.3     
  20 C20            1.1081    10.9549    -1.1267 C.2     
  21 O21            1.3397    10.3116     2.2410 O.2     
  22 C22            1.0020    12.9475     2.5973 C.3     
  23 Cl23           3.8367     9.0974     0.0125 Cl      
  24 O24            1.0165    10.3363    -2.1653 O.2     
  25 C25           -0.9605    13.2667    -0.0489 C.3     
  26 C26            0.7093    14.5375     0.2613 C.3     
  27 C27           -0.7479    14.5616     0.7544 C.3     
  28 H28           -0.9584     1.9035     0.0169 H       
  29 H29           -0.9266    -0.5554     0.0083 H       
  30 H30            1.2163    -1.7630    -0.0187 H       
  31 H31            3.3399    -0.5217    -0.0326 H       
  32 H32            3.3330     1.9375    -0.0182 H       
  33 H33            3.2993     6.3048     0.0038 H       
  34 H34           -1.0058     8.7280     0.0569 H       
  35 H35           -0.9928     6.2704     0.0328 H       
  36 H36            0.6927    12.8452    -2.0371 H       
  37 H37            2.2536    12.7564    -1.1807 H       
  38 H38            1.2709    12.2260     3.3689 H       
  39 H39            1.7690    13.7198     2.5389 H       
  40 H40            0.0442    13.4047     2.8453 H       
  41 H41           -1.2725    13.4378    -1.0792 H       
  42 H42           -1.5781    12.5301     0.4650 H       
  43 H43            1.4336    14.8222     1.0244 H       
  44 H44            0.8598    15.0605    -0.6831 H       
  45 H45           -1.3221    15.4081     0.3777 H       
  46 H46           -0.8464    14.4281     1.8316 H       
@<TRIPOS>BOND
   1    1    2 ar
   2    1    6 ar
   3    1   28 1
   4    2    3 ar
   5    2   29 1
   6    3    4 ar
   7    3   30 1
   8    4    5 ar
   9    4   31 1
  10    5    6 ar
  11    5   32 1
  12    6    7 1
  13    7    8 3
  14    8    9 1
  15    9   10 ar
  16    9   14 ar
  17   10   11 ar
  18   10   33 1
  19   11   12 ar
  20   11   23 1
  21   12   13 ar
  22   12   15 1
  23   13   14 ar
  24   13   34 1
  25   14   35 1
  26   15   16 am
  27   15   20 am
  28   16   17 am
  29   16   21 2
  30   17   18 1
  31   17   22 1
  32   18   19 1
  33   18   25 1
  34   18   26 1
  35   19   20 1
  36   19   36 1
  37   19   37 1
  38   20   24 2
  39   22   38 1
  40   22   39 1
  41   22   40 1
  42   25   27 1
  43   25   41 1
  44   25   42 1
  45   26   27 1
  46   26   43 1
  47   26   44 1
  48   27   45 1
  49   27   46 1

#	End of record

