#	Name: ASD01885677
#	Creating user name:	WinNT
#	Creation time:	15. 06. 2019 19:50

#	Modifying user name:	WinNT
#	Modification time:	15. 06. 2019 19:50

#	Program:	/corina/corina34_cracker 3.40 0067  02.08.2006

@<TRIPOS>MOLECULE
ASD01885677
  52   55    0    0    0
SMALL
NO_CHARGES


@<TRIPOS>ATOM
   1 C1             0.7995     0.7233     0.2555 C.ar    
   2 C2            -0.3748     1.4974     0.4369 C.ar    
   3 C3            -0.2582     2.9038     0.5744 C.ar    
   4 C4             1.0135     3.4582     0.5240 C.ar    
   5 C5             2.1224     2.6242     0.3418 C.ar    
   6 N6             1.9922     1.3176     0.2104 N.ar    
   7 C7             0.6821    -0.6731     0.1191 C.ar    
   8 C8            -0.5468    -1.2551     0.1682 C.ar    
   9 C9            -1.6972    -0.4909     0.3519 C.ar    
  10 C10           -1.6236     0.8643     0.4766 C.ar    
  11 C11           -1.4551     3.7543     0.7653 C.ar    
  12 C12           -1.4910     4.6902     1.7994 C.ar    
  13 C13           -2.6081     5.4800     1.9730 C.ar    
  14 C14           -2.5484     3.6264    -0.0919 C.ar    
  15 C15            3.4767     3.2251     0.2825 C.2     
  16 N16            4.5553     2.4387     0.0964 N.am    
  17 O17            3.6140     4.4264     0.4018 O.2     
  18 C18           -0.6644    -2.7515     0.0341 C.3     
  19 N19           -0.8327    -3.1035    -1.3780 N.pl3   
  20 N20            0.1227    -3.3556    -2.2039 N.2     
  21 N21           -0.3876    -3.6275    -3.3571 N.2     
  22 C22           -1.7124    -3.5391    -3.2364 C.2     
  23 N23           -1.9608    -3.2158    -1.9911 N.2     
  24 C24           -3.6940     5.3451     1.1224 C.ar    
  25 C25           -3.6610     4.4209     0.0901 C.ar    
  26 F26           -4.7863     6.1208     1.2969 F       
  27 C27           -2.7300    -3.7720    -4.3233 C.3     
  28 O28           -3.4982    -2.5831    -4.5192 O.3     
  29 C29           -2.0123    -4.1356    -5.6246 C.3     
  30 C30           -1.1454    -2.9581    -6.0751 C.3     
  31 C31           -3.6585    -4.9177    -3.9156 C.3     
  32 F32           -4.3457    -4.5682    -2.7482 F       
  33 F33           -4.5771    -5.1614    -4.9423 F       
  34 F34           -2.9017    -6.0712    -3.6835 F       
  35 H35            1.1460     4.5254     0.6242 H       
  36 H36            1.5639    -1.2799    -0.0242 H       
  37 H37           -2.6598    -0.9787     0.3958 H       
  38 H38           -2.5229     1.4462     0.6147 H       
  39 H39           -0.6454     4.7957     2.4629 H       
  40 H40           -2.6370     6.2045     2.7735 H       
  41 H41           -2.5235     2.9067    -0.8968 H       
  42 H42            4.4457     1.4796     0.0012 H       
  43 H43            5.4413     2.8318     0.0576 H       
  44 H44            0.2390    -3.2231     0.4209 H       
  45 H45           -1.5276    -3.1005     0.6009 H       
  46 H46           -4.5095     4.3197    -0.5703 H       
  47 H47           -2.9732    -1.8140    -4.7799 H       
  48 H48           -1.3814    -5.0091    -5.4597 H       
  49 H49           -2.7493    -4.3601    -6.3956 H       
  50 H50           -1.7849    -2.1144    -6.3343 H       
  51 H51           -0.4744    -2.6704    -5.2658 H       
  52 H52           -0.5593    -3.2508    -6.9463 H       
@<TRIPOS>BOND
   1    1    7 ar
   2    1    6 ar
   3    1    2 ar
   4    2    3 ar
   5    2   10 ar
   6    3   11 1
   7    3    4 ar
   8    4    5 ar
   9    4   35 1
  10    5   15 1
  11    5    6 ar
  12    7    8 ar
  13    7   36 1
  14    8    9 ar
  15    8   18 1
  16    9   10 ar
  17    9   37 1
  18   10   38 1
  19   11   12 ar
  20   11   14 ar
  21   12   13 ar
  22   12   39 1
  23   13   24 ar
  24   13   40 1
  25   14   25 ar
  26   14   41 1
  27   15   16 am
  28   15   17 2
  29   16   42 1
  30   16   43 1
  31   18   19 1
  32   18   44 1
  33   18   45 1
  34   19   20 1
  35   19   23 1
  36   20   21 2
  37   21   22 1
  38   22   23 2
  39   22   27 1
  40   24   25 ar
  41   24   26 1
  42   25   46 1
  43   27   31 1
  44   27   28 1
  45   27   29 1
  46   28   47 1
  47   29   30 1
  48   29   48 1
  49   29   49 1
  50   30   50 1
  51   30   51 1
  52   30   52 1
  53   31   32 1
  54   31   33 1
  55   31   34 1

#	End of record

