#	Name: ASD03730627
#	Creating user name:	WinNT
#	Creation time:	15. 06. 2019 20:44

#	Modifying user name:	WinNT
#	Modification time:	15. 06. 2019 20:44

#	Program:	/corina/corina34_cracker 3.40 0067  02.08.2006

@<TRIPOS>MOLECULE
ASD03730627
  60   66    0    0    0
SMALL
NO_CHARGES


@<TRIPOS>ATOM
   1 O1             1.2410     2.0182    -1.7048 O.3     
   2 C2             1.2226     0.5864    -1.8577 C.3     
   3 O3             2.6049     0.2479    -2.0749 O.3     
   4 C4             3.3236     1.2285    -1.4530 C.ar    
   5 C5             2.4849     2.3178    -1.2279 C.ar    
   6 C6             4.6467     1.2800    -1.0528 C.ar    
   7 C7             5.1506     2.4166    -0.4280 C.ar    
   8 C8             4.3062     3.5029    -0.2187 C.ar    
   9 C9             2.9847     3.4518    -0.6100 C.ar    
  10 O10            6.4021     2.6637     0.0544 O.3     
  11 C11            5.1381     4.5721     0.4376 C.3     
  12 C12            6.5765     4.0845     0.2160 C.3     
  13 N13            4.5042     6.7311     0.8354 N.am    
  14 C14            4.9059     5.9260    -0.1685 C.2     
  15 C15            4.8198     4.7295     1.8947 C.ar    
  16 C16            4.8387     3.8632     2.9801 C.ar    
  17 C17            4.4765     4.3285     4.2450 C.ar    
  18 C18            4.1018     5.6476     4.4072 C.ar    
  19 C19            4.0847     6.5077     3.3277 C.ar    
  20 C20            4.4443     6.0578     2.0582 C.ar    
  21 O21            5.0517     6.2349    -1.3323 O.2     
  22 C22            4.1690     8.1469     0.6641 C.3     
  23 C23            2.6795     8.2829     0.3419 C.3     
  24 C24            2.3294     9.7615     0.1630 C.3     
  25 C25            0.8399     9.8976    -0.1591 C.3     
  26 C26            0.4898    11.3762    -0.3381 C.3     
  27 C27            4.3614     1.4537     2.7160 C.2     
  28 C28            5.2418     2.4491     2.7957 C.2     
  29 C29            6.6377     2.0330     2.6855 C.ar    
  30 C30            6.7572     0.6527     2.5166 C.ar    
  31 S31            5.1627    -0.0896     2.4980 S.3     
  32 C32            8.0258     0.0766     2.3934 C.ar    
  33 C33            9.1511     0.8655     2.4388 C.ar    
  34 C34            9.0339     2.2380     2.6072 C.ar    
  35 C35            7.8076     2.8180     2.7276 C.ar    
  36 H36            0.8493     0.1093    -0.9516 H       
  37 H37            0.6185     0.3009    -2.7188 H       
  38 H38            5.2928     0.4321    -1.2260 H       
  39 H39            2.3378     4.2984    -0.4336 H       
  40 H40            7.1973     4.3020     1.0851 H       
  41 H41            7.0010     4.5274    -0.6850 H       
  42 H42            4.4889     3.6598     5.0930 H       
  43 H43            3.8206     6.0089     5.3854 H       
  44 H44            3.7897     7.5372     3.4675 H       
  45 H45            4.3926     8.6871     1.5840 H       
  46 H46            4.7571     8.5631    -0.1539 H       
  47 H47            2.4559     7.7427    -0.5780 H       
  48 H48            2.0914     7.8667     1.1598 H       
  49 H49            2.5530    10.3018     1.0829 H       
  50 H50            2.9175    10.1778    -0.6549 H       
  51 H51            0.6163     9.3574    -1.0790 H       
  52 H52            0.2518     9.4814     0.6588 H       
  53 H53           -0.5714    11.4732    -0.5676 H       
  54 H54            0.7134    11.9165     0.5818 H       
  55 H55            1.0779    11.7925    -1.1560 H       
  56 H56            3.2909     1.5804     2.7818 H       
  57 H57            8.1219    -0.9911     2.2626 H       
  58 H58           10.1285     0.4160     2.3436 H       
  59 H59            9.9222     2.8511     2.6426 H       
  60 H60            7.7310     3.8874     2.8578 H       
@<TRIPOS>BOND
   1    1    2 1
   2    1    5 1
   3    2    3 1
   4    2   36 1
   5    2   37 1
   6    3    4 1
   7    4    5 ar
   8    4    6 ar
   9    5    9 ar
  10    6    7 ar
  11    6   38 1
  12    7    8 ar
  13    7   10 1
  14    8    9 ar
  15    8   11 1
  16    9   39 1
  17   10   12 1
  18   11   12 1
  19   11   14 1
  20   11   15 1
  21   12   40 1
  22   12   41 1
  23   13   14 am
  24   13   20 1
  25   13   22 1
  26   14   21 2
  27   15   16 ar
  28   15   20 ar
  29   16   17 ar
  30   16   28 1
  31   17   18 ar
  32   17   42 1
  33   18   19 ar
  34   18   43 1
  35   19   20 ar
  36   19   44 1
  37   22   23 1
  38   22   45 1
  39   22   46 1
  40   23   24 1
  41   23   47 1
  42   23   48 1
  43   24   25 1
  44   24   49 1
  45   24   50 1
  46   25   26 1
  47   25   51 1
  48   25   52 1
  49   26   53 1
  50   26   54 1
  51   26   55 1
  52   27   28 2
  53   27   31 1
  54   27   56 1
  55   28   29 1
  56   29   30 ar
  57   29   35 ar
  58   30   31 1
  59   30   32 ar
  60   32   33 ar
  61   32   57 1
  62   33   34 ar
  63   33   58 1
  64   34   35 ar
  65   34   59 1
  66   35   60 1

#	End of record

