#	Name: ASD02030338
#	Creating user name:	WinNT
#	Creation time:	15. 06. 2019 20:15

#	Modifying user name:	WinNT
#	Modification time:	15. 06. 2019 20:15

#	Program:	/corina/corina34_cracker 3.40 0067  02.08.2006

@<TRIPOS>MOLECULE
ASD02030338
  20   21    0    0    0
SMALL
NO_CHARGES


@<TRIPOS>ATOM
   1 C1            -0.0144     1.2090     0.0087 C.2     
   2 O2             0.0021    -0.0041     0.0020 O.2     
   3 N3             2.6253     3.5735    -0.0038 N.pl3   
   4 N4             1.3719     3.2746     0.0065 N.2     
   5 C5             1.2510     1.9627     0.0007 C.2     
   6 N6             2.4892     1.4326    -0.0140 N.2     
   7 C7             3.3383     2.4277    -0.0168 C.2     
   8 C8             3.1580     4.8695    -0.0072 C.ar    
   9 C9             2.3111     5.9699     0.0016 C.ar    
  10 C10            2.8392     7.2460    -0.0018 C.ar    
  11 C11            4.2099     7.4286    -0.0138 C.ar    
  12 C12            5.0559     6.3348    -0.0225 C.ar    
  13 C13            4.5339     5.0561    -0.0134 C.ar    
  14 Cl14          -1.5294     2.0565     0.0205 Cl      
  15 H15            4.4152     2.3469    -0.0275 H       
  16 H16            1.2405     5.8279     0.0106 H       
  17 H17            2.1810     8.1022     0.0046 H       
  18 H18            4.6205     8.4275    -0.0168 H       
  19 H19            6.1260     6.4806    -0.0323 H       
  20 H20            5.1952     4.2022    -0.0157 H       
@<TRIPOS>BOND
   1    1    2 2
   2    1    5 1
   3    1   14 1
   4    3    4 1
   5    3    7 1
   6    3    8 1
   7    4    5 2
   8    5    6 1
   9    6    7 2
  10    7   15 1
  11    8    9 ar
  12    8   13 ar
  13    9   10 ar
  14    9   16 1
  15   10   11 ar
  16   10   17 1
  17   11   12 ar
  18   11   18 1
  19   12   13 ar
  20   12   19 1
  21   13   20 1

#	End of record

