#	Name: ASD03090257
#	Creating user name:	WinNT
#	Creation time:	15. 06. 2019 20:28

#	Modifying user name:	WinNT
#	Modification time:	15. 06. 2019 20:28

#	Program:	/corina/corina34_cracker 3.40 0067  02.08.2006

@<TRIPOS>MOLECULE
ASD03090257
  47   49    0    0    0
SMALL
NO_CHARGES


@<TRIPOS>ATOM
   1 N1             0.0294     1.1765     1.2899 N.ar    
   2 C2             0.0832    -0.1469     1.2836 C.ar    
   3 C3             1.2772    -0.8072     1.0232 C.ar    
   4 C4             2.4241    -0.0533     0.7671 C.ar    
   5 C5             2.3170     1.3431     0.7848 C.ar    
   6 C6             1.0938     1.9198     1.0520 C.ar    
   7 C7             3.7191    -0.7124     0.4849 C.2     
   8 N8             5.7299    -3.4339    -0.4660 N.pl3   
   9 C9             4.8880    -4.4834    -0.8486 C.ar    
  10 C10            3.6816    -4.2121    -1.4805 C.ar    
  11 C11            2.8520    -5.2501    -1.8578 C.ar    
  12 C12            3.2226    -6.5602    -1.6064 C.ar    
  13 C13            4.4253    -6.8331    -0.9763 C.ar    
  14 C14            5.2602    -5.7988    -0.6021 C.ar    
  15 N15            3.8852    -1.9609     0.0974 N.2     
  16 C16            5.1849    -2.2133    -0.0629 C.2     
  17 N17            5.8698    -1.1287     0.2200 N.2     
  18 N18            4.9394    -0.1380     0.5735 N.pl3   
  19 C19            5.2336     1.2418     0.9682 C.3     
  20 F20            2.4095    -7.5739    -1.9759 F       
  21 C21            5.2803     2.1160    -0.2584 C.2     
  22 N22            5.5370     3.4336    -0.1375 N.am    
  23 O23            5.0869     1.6340    -1.3544 O.2     
  24 C24            5.5824     4.2835    -1.3298 C.3     
  25 N25           -1.0678    -0.8832     1.5410 N.pl3   
  26 C26           -1.0172    -2.3473     1.5361 C.3     
  27 C27            4.8259    -8.2602    -0.7041 C.3     
  28 F28            6.0700    -8.2814    -0.0645 F       
  29 F29            3.8686    -8.8645     0.1179 F       
  30 F30            4.9109    -8.9594    -1.9128 F       
  31 H31            1.3178    -1.8864     1.0192 H       
  32 H32            3.1819     1.9603     0.5918 H       
  33 H33            1.0051     2.9960     1.0670 H       
  34 H34            6.6923    -3.5541    -0.4808 H       
  35 H35            3.3919    -3.1903    -1.6765 H       
  36 H36            1.9135    -5.0396    -2.3489 H       
  37 H37            6.1980    -6.0121    -0.1108 H       
  38 H38            4.4550     1.6011     1.6410 H       
  39 H39            6.1974     1.2767     1.4762 H       
  40 H40            5.6917     3.8191     0.7391 H       
  41 H41            6.3610     3.9242    -2.0027 H       
  42 H42            4.6186     4.2486    -1.8378 H       
  43 H43            5.8013     5.3101    -1.0362 H       
  44 H44           -1.9043    -0.4274     1.7238 H       
  45 H45           -0.6952    -2.6964     0.5550 H       
  46 H46           -0.3113    -2.6890     2.2930 H       
  47 H47           -2.0075    -2.7458     1.7565 H       
@<TRIPOS>BOND
   1    1    2 ar
   2    1    6 ar
   3    2    3 ar
   4    2   25 1
   5    3    4 ar
   6    3   31 1
   7    4    5 ar
   8    4    7 1
   9    5    6 ar
  10    5   32 1
  11    6   33 1
  12    7   15 2
  13    7   18 1
  14    8    9 1
  15    8   16 1
  16    8   34 1
  17    9   10 ar
  18    9   14 ar
  19   10   11 ar
  20   10   35 1
  21   11   12 ar
  22   11   36 1
  23   12   13 ar
  24   12   20 1
  25   13   14 ar
  26   13   27 1
  27   14   37 1
  28   15   16 1
  29   16   17 2
  30   17   18 1
  31   18   19 1
  32   19   21 1
  33   19   38 1
  34   19   39 1
  35   21   22 am
  36   21   23 2
  37   22   24 1
  38   22   40 1
  39   24   41 1
  40   24   42 1
  41   24   43 1
  42   25   26 1
  43   25   44 1
  44   26   45 1
  45   26   46 1
  46   26   47 1
  47   27   28 1
  48   27   29 1
  49   27   30 1

#	End of record

