#	Name: ASD04910022
#	Creating user name:	WinNT
#	Creation time:	15. 06. 2019 20:55

#	Modifying user name:	WinNT
#	Modification time:	15. 06. 2019 20:55

#	Program:	/corina/corina34_cracker 3.40 0067  02.08.2006

@<TRIPOS>MOLECULE
ASD04910022
  64   66    0    0    0
SMALL
NO_CHARGES


@<TRIPOS>ATOM
   1 C1            -2.8665     0.3933    -0.6357 C.2     
   2 C2            -2.5139    -1.0719    -0.6374 C.3     
   3 C3            -0.9926    -1.2304    -0.5993 C.3     
   4 O4            -1.9909     1.2254    -0.6071 O.2     
   5 O5            -4.1532     0.7740    -0.6718 O.3     
   6 C6             0.6423    -3.0369    -0.5703 C.2     
   7 C7             0.9883    -4.4743    -0.5719 C.ar    
   8 C8             2.3254    -4.8735    -0.5403 C.ar    
   9 C9             2.6413    -6.2164    -0.5415 C.ar    
  10 C10            1.6362    -7.1666    -0.5744 C.ar    
  11 C11            0.3088    -6.7777    -0.6058 C.ar    
  12 C12           -0.0210    -5.4381    -0.5991 C.ar    
  13 O13            1.5232    -2.1998    -0.5414 O.2     
  14 N14           -0.6498    -2.6547    -0.6008 N.am    
  15 C15            1.9889    -8.6318    -0.5765 C.3     
  16 C16            2.0227    -9.1461    -2.0170 C.3     
  17 C17            2.5014   -10.5993    -2.0286 C.3     
  18 C18            2.5353   -11.1136    -3.4691 C.3     
  19 O19            1.0080    -9.3589     0.1660 O.3     
  20 C20            1.4584   -10.3569     0.9716 C.ar    
  21 C21            2.8005   -10.7085     0.9557 C.ar    
  22 C22            3.2586   -11.7219     1.7740 C.ar    
  23 C23            2.3760   -12.3890     2.6128 C.ar    
  24 C24            1.0332   -12.0368     2.6283 C.ar    
  25 C25            0.5771   -11.0198     1.8135 C.ar    
  26 N26            2.8409   -13.4190     3.4441 N.pl3   
  27 N27            3.5621   -14.5477     3.0337 N.2     
  28 C28            3.8164   -15.2773     4.0903 C.2     
  29 C29            3.2664   -14.6381     5.2065 C.2     
  30 C30            2.6773   -13.4951     4.7840 C.2     
  31 C31            3.3251   -15.1317     6.6292 C.3     
  32 F32            4.0224   -16.3437     6.6739 F       
  33 F33            3.9819   -14.1862     7.4241 F       
  34 F34            2.0254   -15.3234     7.1103 F       
  35 C35            0.0747   -12.7605     3.5385 C.3     
  36 C36            4.7162   -12.1040     1.7564 C.3     
  37 H37           -2.9512    -1.5518     0.2381 H       
  38 H38           -2.9053    -1.5388    -1.5412 H       
  39 H39           -0.5552    -0.7504    -1.4748 H       
  40 H40           -0.6012    -0.7634     0.3046 H       
  41 H41           -4.3299     1.7246    -0.6691 H       
  42 H42            3.1109    -4.1327    -0.5153 H       
  43 H43            3.6755    -6.5266    -0.5170 H       
  44 H44           -0.4710    -7.5244    -0.6314 H       
  45 H45           -1.0576    -5.1358    -0.6192 H       
  46 H46           -1.3527    -3.3227    -0.6239 H       
  47 H47            2.9680    -8.7705    -0.1180 H       
  48 H48            1.0225    -9.0897    -2.4466 H       
  49 H49            2.7060    -8.5338    -2.6055 H       
  50 H50            3.5016   -10.6558    -1.5990 H       
  51 H51            1.8181   -11.2116    -1.4401 H       
  52 H52            2.8763   -12.1489    -3.4774 H       
  53 H53            1.5351   -11.0571    -3.8987 H       
  54 H54            3.2185   -10.5013    -4.0576 H       
  55 H55            3.4869   -10.1898     0.3029 H       
  56 H56           -0.4667   -10.7427     1.8287 H       
  57 H57            4.3574   -16.2120     4.0988 H       
  58 H58            2.1659   -12.7747     5.4052 H       
  59 H59            0.0933   -12.2996     4.5261 H       
  60 H60           -0.9331   -12.6990     3.1278 H       
  61 H61            0.3706   -13.8064     3.6201 H       
  62 H62            5.2380   -11.5837     2.5596 H       
  63 H63            4.8113   -13.1805     1.8988 H       
  64 H64            5.1536   -11.8243     0.7979 H       
@<TRIPOS>BOND
   1    1    2 1
   2    1    4 2
   3    1    5 1
   4    2    3 1
   5    2   37 1
   6    2   38 1
   7    3   14 1
   8    3   39 1
   9    3   40 1
  10    5   41 1
  11    6    7 1
  12    6   13 2
  13    6   14 am
  14    7    8 ar
  15    7   12 ar
  16    8    9 ar
  17    8   42 1
  18    9   10 ar
  19    9   43 1
  20   10   11 ar
  21   10   15 1
  22   11   12 ar
  23   11   44 1
  24   12   45 1
  25   14   46 1
  26   15   16 1
  27   15   19 1
  28   15   47 1
  29   16   17 1
  30   16   48 1
  31   16   49 1
  32   17   18 1
  33   17   50 1
  34   17   51 1
  35   18   52 1
  36   18   53 1
  37   18   54 1
  38   19   20 1
  39   20   21 ar
  40   20   25 ar
  41   21   22 ar
  42   21   55 1
  43   22   23 ar
  44   22   36 1
  45   23   24 ar
  46   23   26 1
  47   24   25 ar
  48   24   35 1
  49   25   56 1
  50   26   27 1
  51   26   30 1
  52   27   28 2
  53   28   29 1
  54   28   57 1
  55   29   30 2
  56   29   31 1
  57   30   58 1
  58   31   32 1
  59   31   33 1
  60   31   34 1
  61   35   59 1
  62   35   60 1
  63   35   61 1
  64   36   62 1
  65   36   63 1
  66   36   64 1

#	End of record

