#	Name: ASD02810001
#	Creating user name:	WinNT
#	Creation time:	15. 06. 2019 20:26

#	Modifying user name:	WinNT
#	Modification time:	15. 06. 2019 20:26

#	Program:	/corina/corina34_cracker 3.40 0067  02.08.2006

@<TRIPOS>MOLECULE
ASD02810001
   9    8    0    0    0
SMALL
NO_CHARGES


@<TRIPOS>ATOM
   1 C1            -0.0162     1.3436     0.0094 C.2     
   2 N2             0.0021    -0.0041     0.0020 N.am    
   3 N3             1.1417     2.0332     0.0021 N.am    
   4 O4            -1.0773     1.9371     0.0177 O.2     
   5 O5            -1.2144    -0.7287     0.0097 O.3     
   6 H6             0.8486    -0.4776    -0.0086 H       
   7 H7             1.9882     1.5597    -0.0085 H       
   8 H8             1.1285     3.0031     0.0074 H       
   9 H9            -1.1003    -1.6889     0.0035 H       
@<TRIPOS>BOND
   1    1    2 am
   2    1    3 am
   3    1    4 2
   4    2    5 1
   5    2    6 1
   6    3    7 1
   7    3    8 1
   8    5    9 1

#	End of record

