#	Name: ASD06560015
#	Creating user name:	WinNT
#	Creation time:	15. 06. 2019 21:06

#	Modifying user name:	WinNT
#	Modification time:	15. 06. 2019 21:06

#	Program:	/corina/corina34_cracker 3.40 0067  02.08.2006

@<TRIPOS>MOLECULE
ASD06560015
  54   58    0    0    0
SMALL
NO_CHARGES


@<TRIPOS>ATOM
   1 C1            -0.2006     0.3585     0.9565 C.ar    
   2 C2            -0.5025    -1.0035     1.0574 C.ar    
   3 C3             0.4944    -1.8952     1.3258 C.ar    
   4 C4             1.8077    -1.4681     1.5008 C.ar    
   5 C5             2.1350    -0.1480     1.4094 C.ar    
   6 C6             1.1352     0.7958     1.1341 C.ar    
   7 N7             1.4049     2.1044     1.0337 N.ar    
   8 C8             0.4407     2.9675     0.7740 C.ar    
   9 N9            -0.8275     2.6000     0.6002 N.ar    
  10 C10           -1.1941     1.3296     0.6739 C.ar    
  11 C11            0.7838     4.4065     0.6720 C.ar    
  12 C12            2.1013     4.8259     0.8489 C.ar    
  13 C13            2.4147     6.1664     0.7528 C.ar    
  14 C14            1.4243     7.0933     0.4817 C.ar    
  15 C15            0.1151     6.6829     0.3052 C.ar    
  16 C16           -0.2091     5.3444     0.3933 C.ar    
  17 N17           -2.5093     0.9612     0.4856 N.pl3   
  18 C18           -3.5208     1.9802     0.1943 C.3     
  19 C19           -4.8868     1.3106     0.0310 C.3     
  20 C20           -5.9463     2.3676    -0.1463 C.ar    
  21 C21           -4.8649     0.4132    -1.1794 C.ar    
  22 C22           -4.4243     0.0854    -3.5099 C.ar    
  23 C23           -4.8242    -1.2333    -3.4000 C.ar    
  24 C24           -5.2505    -1.7270    -2.1812 C.ar    
  25 C25           -5.2706    -0.9038    -1.0708 C.ar    
  26 C26           -4.4445     0.9086    -2.3996 C.ar    
  27 C27           -6.7651     4.3139    -1.2752 C.ar    
  28 C28           -5.7932     3.3444    -1.1125 C.ar    
  29 C29           -7.0739     2.3570     0.6532 C.ar    
  30 C30           -8.0457     3.3265     0.4906 C.ar    
  31 C31           -7.8897     4.3069    -0.4714 C.ar    
  32 H32           -1.5178    -1.3468     0.9240 H       
  33 H33            0.2615    -2.9469     1.4041 H       
  34 H34            2.5791    -2.1937     1.7125 H       
  35 H35            3.1581     0.1690     1.5482 H       
  36 H36            2.8753     4.1031     1.0610 H       
  37 H37            3.4352     6.4925     0.8900 H       
  38 H38            1.6741     8.1414     0.4078 H       
  39 H39           -0.6541     7.4110     0.0937 H       
  40 H40           -1.2308     5.0246     0.2509 H       
  41 H41           -2.7648     0.0275     0.5459 H       
  42 H42           -3.5627     2.6957     1.0156 H       
  43 H43           -3.2584     2.4997    -0.7272 H       
  44 H44           -5.1096     0.7183     0.9185 H       
  45 H45           -4.0912     0.4711    -4.4621 H       
  46 H46           -4.8084    -1.8764    -4.2674 H       
  47 H47           -5.5629    -2.7572    -2.0953 H       
  48 H48           -5.6029    -1.2897    -0.1185 H       
  49 H49           -4.1321     1.9389    -2.4854 H       
  50 H50           -6.6453     5.0772    -2.0297 H       
  51 H51           -4.9142     3.3502    -1.7399 H       
  52 H52           -7.1957     1.5910     1.4048 H       
  53 H53           -8.9270     3.3178     1.1148 H       
  54 H54           -8.6490     5.0644    -0.5986 H       
@<TRIPOS>BOND
   1    1    2 ar
   2    1    6 ar
   3    1   10 ar
   4    2    3 ar
   5    2   32 1
   6    3    4 ar
   7    3   33 1
   8    4    5 ar
   9    4   34 1
  10    5    6 ar
  11    5   35 1
  12    6    7 ar
  13    7    8 ar
  14    8    9 ar
  15    8   11 1
  16    9   10 ar
  17   10   17 1
  18   11   12 ar
  19   11   16 ar
  20   12   13 ar
  21   12   36 1
  22   13   14 ar
  23   13   37 1
  24   14   15 ar
  25   14   38 1
  26   15   16 ar
  27   15   39 1
  28   16   40 1
  29   17   18 1
  30   17   41 1
  31   18   19 1
  32   18   42 1
  33   18   43 1
  34   19   20 1
  35   19   21 1
  36   19   44 1
  37   20   29 ar
  38   20   28 ar
  39   21   26 ar
  40   21   25 ar
  41   22   23 ar
  42   22   26 ar
  43   22   45 1
  44   23   24 ar
  45   23   46 1
  46   24   25 ar
  47   24   47 1
  48   25   48 1
  49   26   49 1
  50   27   28 ar
  51   27   31 ar
  52   27   50 1
  53   28   51 1
  54   29   30 ar
  55   29   52 1
  56   30   31 ar
  57   30   53 1
  58   31   54 1

#	End of record

