#	Name: ASD00431034
#	Creating user name:	WinNT
#	Creation time:	15. 06. 2019 18:35

#	Modifying user name:	WinNT
#	Modification time:	15. 06. 2019 18:35

#	Program:	/corina/corina34_cracker 3.40 0067  02.08.2006

@<TRIPOS>MOLECULE
ASD00431034
  53   56    0    0    0
SMALL
NO_CHARGES


@<TRIPOS>ATOM
   1 C1            -0.0162     1.3418     0.0094 C.2     
   2 C2             0.0021    -0.0041     0.0020 C.2     
   3 C3            -1.4486    -0.4434     0.0141 C.3     
   4 C4            -2.2138     0.8650     0.0287 C.2     
   5 N5            -1.2848     1.8397     0.0301 N.am    
   6 C6            -1.6012     3.2700     0.0428 C.3     
   7 C7            -1.7013     3.7498     1.4679 C.ar    
   8 C8            -0.5772     4.2281     2.1152 C.ar    
   9 C9            -2.9180     3.7159     2.1231 C.ar    
  10 C10           -3.0126     4.1569     3.4331 C.ar    
  11 C11           -1.8792     4.6339     4.0869 C.ar    
  12 C12           -0.6640     4.6694     3.4223 C.ar    
  13 O13           -4.0728     4.2280     4.2900 O.3     
  14 C14           -3.4976     4.3697     5.6023 C.3     
  15 O15           -2.2293     5.0041     5.3532 O.3     
  16 C16           -1.7788    -1.2467    -1.2455 C.3     
  17 C17           -3.1875    -1.7736    -1.1504 C.2     
  18 O18           -3.8610    -1.5306    -0.1715 O.2     
  19 O19           -3.4181     1.0053     0.0414 O.2     
  20 N20           -3.6988    -2.5150    -2.1531 N.am    
  21 C21           -5.0682    -3.0272    -2.0606 C.3     
  22 C22           -5.3935    -3.8184    -3.3012 C.2     
  23 C23           -5.1883    -5.1276    -3.4541 C.2     
  24 C24           -5.5668    -5.6375    -4.6841 C.2     
  25 C25           -6.0794    -4.7425    -5.5300 C.2     
  26 S26           -6.1086    -3.1584    -4.7663 S.3     
  27 C27            1.2231     2.1991     0.0022 C.3     
  28 C28            1.1442    -0.8396    -0.0142 C.2     
  29 O29            2.2573    -0.3483    -0.0226 O.2     
  30 O30            0.9987    -2.1811    -0.0204 O.3     
  31 C31            2.1945    -2.9632    -0.0369 C.3     
  32 H32           -1.6660    -1.0253     0.9097 H       
  33 H33           -0.8137     3.8209    -0.4716 H       
  34 H34           -2.5517     3.4364    -0.4642 H       
  35 H35            0.3708     4.2568     1.5986 H       
  36 H36           -3.7954     3.3458     1.6135 H       
  37 H37            0.2166     5.0384     3.9270 H       
  38 H38           -4.1257     5.0023     6.2295 H       
  39 H39           -3.3532     3.3932     6.0647 H       
  40 H40           -1.6900    -0.6030    -2.1206 H       
  41 H41           -1.0840    -2.0816    -1.3365 H       
  42 H42           -3.1601    -2.7094    -2.9360 H       
  43 H43           -5.1570    -3.6709    -1.1854 H       
  44 H44           -5.7631    -2.1923    -1.9695 H       
  45 H45           -4.7591    -5.7429    -2.6773 H       
  46 H46           -5.4553    -6.6809    -4.9395 H       
  47 H47           -6.4266    -4.9583    -6.5296 H       
  48 H48            1.5121     2.4114    -1.0272 H       
  49 H49            1.0206     3.1350     0.5230 H       
  50 H50            2.0331     1.6712     0.5055 H       
  51 H51            2.7709    -2.7270    -0.9314 H       
  52 H52            2.7888    -2.7371     0.8485 H       
  53 H53            1.9361    -4.0221    -0.0403 H       
@<TRIPOS>BOND
   1    1    2 2
   2    1   27 1
   3    1    5 1
   4    2    3 1
   5    2   28 1
   6    3    4 1
   7    3   16 1
   8    3   32 1
   9    4    5 am
  10    4   19 2
  11    5    6 1
  12    6    7 1
  13    6   33 1
  14    6   34 1
  15    7    8 ar
  16    7    9 ar
  17    8   12 ar
  18    8   35 1
  19    9   10 ar
  20    9   36 1
  21   10   11 ar
  22   10   13 1
  23   11   12 ar
  24   11   15 1
  25   12   37 1
  26   13   14 1
  27   14   15 1
  28   14   38 1
  29   14   39 1
  30   16   17 1
  31   16   40 1
  32   16   41 1
  33   17   18 2
  34   17   20 am
  35   20   21 1
  36   20   42 1
  37   21   22 1
  38   21   43 1
  39   21   44 1
  40   22   23 2
  41   22   26 1
  42   23   24 1
  43   23   45 1
  44   24   25 2
  45   24   46 1
  46   25   26 1
  47   25   47 1
  48   27   48 1
  49   27   49 1
  50   27   50 1
  51   28   29 2
  52   28   30 1
  53   30   31 1
  54   31   51 1
  55   31   52 1
  56   31   53 1

#	End of record

