#	Name: ASD01420461
#	Creating user name:	WinNT
#	Creation time:	15. 06. 2019 19:20

#	Modifying user name:	WinNT
#	Modification time:	15. 06. 2019 19:20

#	Program:	/corina/corina34_cracker 3.40 0067  02.08.2006

@<TRIPOS>MOLECULE
ASD01420461
  53   55    0    0    0
SMALL
NO_CHARGES


@<TRIPOS>ATOM
   1 C1            -0.0178     1.4621     0.0101 C.3     
   2 N2             0.0021    -0.0041     0.0020 N.am    
   3 C3             1.4109    -0.4106    -0.0136 C.3     
   4 C4             2.2496     0.8424    -0.0149 C.ar    
   5 C5             3.6224     1.0209    -0.0275 C.ar    
   6 C6             4.1554     2.2954    -0.0257 C.ar    
   7 C7             3.3169     3.3945    -0.0117 C.ar    
   8 C8             1.9469     3.2171     0.0003 C.ar    
   9 C9             1.4122     1.9401    -0.0010 C.ar    
  10 C10           -1.0694    -0.8216     0.0083 C.2     
  11 O11           -0.9142    -2.0267     0.0007 O.2     
  12 O12           -2.3118    -0.3030     0.0228 O.3     
  13 C13            5.6501     2.4875    -0.0383 C.3     
  14 N14            6.1230     2.5572    -1.4274 N.3     
  15 C15            7.5298     2.9785    -1.4842 C.3     
  16 C16            8.0062     2.9618    -2.9386 C.3     
  17 N17            7.1587     3.8565    -3.7392 N.3     
  18 C18            5.7520     3.4352    -3.6824 C.3     
  19 C19            5.2756     3.4519    -2.2280 C.3     
  20 C20            7.6317     3.9262    -5.1283 C.3     
  21 C21           -3.4185    -1.2429     0.0288 C.3     
  22 C22           -3.3283    -2.1291     1.2728 C.3     
  23 C23           -4.7409    -0.4736     0.0454 C.3     
  24 C24           -3.3524    -2.1165    -1.2255 C.3     
  25 H25           -0.5370     1.8294    -0.8752 H       
  26 H26           -0.5199     1.8199     0.9090 H       
  27 H27            1.6341    -1.0037     0.8732 H       
  28 H28            1.6171    -0.9941    -0.9109 H       
  29 H29            4.2777     0.1625    -0.0383 H       
  30 H30            3.7326     4.3913    -0.0100 H       
  31 H31            1.2921     4.0758     0.0116 H       
  32 H32            5.9017     3.4139     0.4781 H       
  33 H33            6.1286     1.6485     0.4667 H       
  34 H34            7.6238     3.9874    -1.0823 H       
  35 H35            8.1387     2.2935    -0.8942 H       
  36 H36            9.0407     3.3018    -2.9863 H       
  37 H37            7.9378     1.9476    -3.3320 H       
  38 H38            5.1431     4.1202    -4.2724 H       
  39 H39            5.6580     2.4263    -4.0843 H       
  40 H40            4.2410     3.1119    -2.1803 H       
  41 H41            5.3440     4.4661    -1.8346 H       
  42 H42            7.6054     2.9307    -5.5714 H       
  43 H43            6.9868     4.5948    -5.6985 H       
  44 H44            8.6537     4.3048    -5.1455 H       
  45 H45           -3.3754    -1.5067     2.1664 H       
  46 H46           -4.1590    -2.8347     1.2773 H       
  47 H47           -2.3861    -2.6771     1.2610 H       
  48 H48           -4.8052     0.1577    -0.8408 H       
  49 H49           -5.5717    -1.1792     0.0499 H       
  50 H50           -4.7880     0.1487     0.9391 H       
  51 H51           -2.4103    -2.6646    -1.2374 H       
  52 H52           -4.1832    -2.8221    -1.2211 H       
  53 H53           -3.4166    -1.4852    -2.1118 H       
@<TRIPOS>BOND
   1    1    2 1
   2    1    9 1
   3    1   25 1
   4    1   26 1
   5    2    3 1
   6    2   10 am
   7    3    4 1
   8    3   27 1
   9    3   28 1
  10    4    5 ar
  11    4    9 ar
  12    5    6 ar
  13    5   29 1
  14    6    7 ar
  15    6   13 1
  16    7    8 ar
  17    7   30 1
  18    8    9 ar
  19    8   31 1
  20   10   11 2
  21   10   12 1
  22   12   21 1
  23   13   14 1
  24   13   32 1
  25   13   33 1
  26   14   15 1
  27   14   19 1
  28   15   16 1
  29   15   34 1
  30   15   35 1
  31   16   17 1
  32   16   36 1
  33   16   37 1
  34   17   18 1
  35   17   20 1
  36   18   19 1
  37   18   38 1
  38   18   39 1
  39   19   40 1
  40   19   41 1
  41   20   42 1
  42   20   43 1
  43   20   44 1
  44   21   22 1
  45   21   24 1
  46   21   23 1
  47   22   45 1
  48   22   46 1
  49   22   47 1
  50   23   48 1
  51   23   49 1
  52   23   50 1
  53   24   51 1
  54   24   52 1
  55   24   53 1

#	End of record

