#	Name: ASD01840172
#	Creating user name:	WinNT
#	Creation time:	15. 06. 2019 19:37

#	Modifying user name:	WinNT
#	Modification time:	15. 06. 2019 19:37

#	Program:	/corina/corina34_cracker 3.40 0067  02.08.2006

@<TRIPOS>MOLECULE
ASD01840172
  42   45    0    0    0
SMALL
NO_CHARGES


@<TRIPOS>ATOM
   1 C1            -1.7894     1.3255    -0.0173 C.3     
   2 C2            -1.8912    -0.2105    -0.0089 C.3     
   3 N3            -1.3339    -0.8449    -1.2059 N.am    
   4 C4            -1.7715    -2.0603    -1.5902 C.2     
   5 C5            -1.2151    -2.6936    -2.7850 C.2     
   6 O6            -2.6300    -2.6311    -0.9425 O.2     
   7 C7            -1.5881    -3.9107    -3.2526 C.2     
   8 C8            -0.8890    -4.3210    -4.4562 C.ar    
   9 C9             0.0363    -3.3612    -4.8879 C.ar    
  10 S10            0.0161    -1.9761    -3.8055 S.3     
  11 C11           -1.0067    -5.5036    -5.2216 C.ar    
  12 C12           -0.2084    -5.6356    -6.3365 C.ar    
  13 N13            0.6375    -4.6748    -6.6667 N.ar    
  14 N14            0.7574    -3.5963    -5.9866 N.ar    
  15 C15           -0.2994    -6.8795    -7.1823 C.3     
  16 C16           -1.9765    -6.5883    -4.8291 C.3     
  17 N17           -2.5531    -4.6945    -2.6346 N.pl3   
  18 C18           -0.9165    -0.1701     1.1819 C.3     
  19 N19           -0.4847     1.1439     0.6564 N.3     
  20 C20           -0.3226     2.0685     1.6916 C.ar    
  21 C21           -1.3091     2.2374     2.6599 C.ar    
  22 C22            0.8323     2.8412     1.7853 C.ar    
  23 N23            0.9470     3.7051     2.7802 N.ar    
  24 C24           -0.0122     3.8393     3.6740 C.ar    
  25 N25           -1.1173     3.1230     3.6234 N.ar    
  26 H26           -1.7120     1.7550    -1.0161 H       
  27 H27           -2.5386     1.8187     0.6021 H       
  28 H28           -2.8833    -0.5830     0.2466 H       
  29 H29           -0.6499    -0.3902    -1.7220 H       
  30 H30           -1.0495    -6.7360    -7.9601 H       
  31 H31            0.6685    -7.0772    -7.6430 H       
  32 H32           -0.5830    -7.7250    -6.5556 H       
  33 H33           -2.9644    -6.3530    -5.2249 H       
  34 H34           -1.6396    -7.5416    -5.2363 H       
  35 H35           -2.0268    -6.6549    -3.7423 H       
  36 H36           -2.7864    -4.5347    -1.7067 H       
  37 H37           -2.9940    -5.4018    -3.1306 H       
  38 H38           -1.4103    -0.1144     2.1520 H       
  39 H39           -0.1415    -0.9355     1.1411 H       
  40 H40           -2.2174     1.6542     2.6245 H       
  41 H41            1.6226     2.7364     1.0567 H       
  42 H42            0.1133     4.5536     4.4743 H       
@<TRIPOS>BOND
   1    1    2 1
   2    1   19 1
   3    1   26 1
   4    1   27 1
   5    2    3 1
   6    2   18 1
   7    2   28 1
   8    3    4 am
   9    3   29 1
  10    4    5 1
  11    4    6 2
  12    5    7 2
  13    5   10 1
  14    7    8 1
  15    7   17 1
  16    8    9 ar
  17    8   11 ar
  18    9   10 1
  19    9   14 ar
  20   11   12 ar
  21   11   16 1
  22   12   13 ar
  23   12   15 1
  24   13   14 ar
  25   15   30 1
  26   15   31 1
  27   15   32 1
  28   16   33 1
  29   16   34 1
  30   16   35 1
  31   17   36 1
  32   17   37 1
  33   18   19 1
  34   18   38 1
  35   18   39 1
  36   19   20 1
  37   20   22 ar
  38   20   21 ar
  39   21   25 ar
  40   21   40 1
  41   22   23 ar
  42   22   41 1
  43   23   24 ar
  44   24   25 ar
  45   24   42 1

#	End of record

