#	Name: ASD06560002
#	Creating user name:	WinNT
#	Creation time:	15. 06. 2019 21:06

#	Modifying user name:	WinNT
#	Modification time:	15. 06. 2019 21:06

#	Program:	/corina/corina34_cracker 3.40 0067  02.08.2006

@<TRIPOS>MOLECULE
ASD06560002
  41   44    0    0    0
SMALL
NO_CHARGES


@<TRIPOS>ATOM
   1 C1            -0.0168     1.3874     0.0097 C.ar    
   2 C2             0.0021    -0.0041     0.0020 C.ar    
   3 C3             1.1800    -0.6906    -0.0125 C.ar    
   4 C4             2.3918     0.0141    -0.0203 C.ar    
   5 C5             2.3699     1.4309    -0.0130 C.ar    
   6 C6             1.1444     2.1041     0.0024 C.ar    
   7 N7             3.5758    -0.6132    -0.0341 N.ar    
   8 C8             4.6991     0.0797    -0.0408 C.ar    
   9 N9             4.7243     1.4112    -0.0343 N.ar    
  10 C10            3.6074     2.1226    -0.0207 C.ar    
  11 C11            5.9870    -0.6552    -0.0556 C.ar    
  12 C12            5.9971    -2.0491    -0.0622 C.ar    
  13 C13            7.1987    -2.7276    -0.0764 C.ar    
  14 C14            8.3915    -2.0272    -0.0842 C.ar    
  15 C15            8.3876    -0.6439    -0.0772 C.ar    
  16 C16            7.1920     0.0453    -0.0687 C.ar    
  17 N17            3.6470     3.5007    -0.0146 N.pl3   
  18 C18            4.9362     4.1965    -0.0232 C.3     
  19 C19            4.7035     5.6854    -0.0140 C.ar    
  20 C20            4.6079     6.3626     1.1873 C.ar    
  21 C21            4.3944     7.7284     1.1956 C.ar    
  22 C22            4.2771     8.4170     0.0028 C.ar    
  23 C23            4.3736     7.7399    -1.1985 C.ar    
  24 C24            4.5914     6.3748    -1.2070 C.ar    
  25 H25           -0.9635     1.9071     0.0170 H       
  26 H26           -0.9306    -0.5485     0.0080 H       
  27 H27            1.1795    -1.7706    -0.0176 H       
  28 H28            1.1170     3.1838     0.0078 H       
  29 H29            5.0664    -2.5969    -0.0558 H       
  30 H30            7.2078    -3.8076    -0.0812 H       
  31 H31            9.3295    -2.5624    -0.0953 H       
  32 H32            9.3220    -0.1023    -0.0825 H       
  33 H33            7.1902     1.1253    -0.0637 H       
  34 H34            2.8213     4.0096    -0.0045 H       
  35 H35            5.5082     3.9127     0.8602 H       
  36 H36            5.4917     3.9211    -0.9196 H       
  37 H37            4.6996     5.8247     2.1192 H       
  38 H38            4.3190     8.2574     2.1342 H       
  39 H39            4.1096     9.4839     0.0093 H       
  40 H40            4.2816     8.2778    -2.1305 H       
  41 H41            4.6669     5.8458    -2.1455 H       
@<TRIPOS>BOND
   1    1    2 ar
   2    1    6 ar
   3    1   25 1
   4    2    3 ar
   5    2   26 1
   6    3    4 ar
   7    3   27 1
   8    4    5 ar
   9    4    7 ar
  10    5    6 ar
  11    5   10 ar
  12    6   28 1
  13    7    8 ar
  14    8    9 ar
  15    8   11 1
  16    9   10 ar
  17   10   17 1
  18   11   12 ar
  19   11   16 ar
  20   12   13 ar
  21   12   29 1
  22   13   14 ar
  23   13   30 1
  24   14   15 ar
  25   14   31 1
  26   15   16 ar
  27   15   32 1
  28   16   33 1
  29   17   18 1
  30   17   34 1
  31   18   19 1
  32   18   35 1
  33   18   36 1
  34   19   20 ar
  35   19   24 ar
  36   20   21 ar
  37   20   37 1
  38   21   22 ar
  39   21   38 1
  40   22   23 ar
  41   22   39 1
  42   23   24 ar
  43   23   40 1
  44   24   41 1

#	End of record

