#	Name: ASD03180012
#	Creating user name:	WinNT
#	Creation time:	15. 06. 2019 20:33

#	Modifying user name:	WinNT
#	Modification time:	15. 06. 2019 20:33

#	Program:	/corina/corina34_cracker 3.40 0067  02.08.2006

@<TRIPOS>MOLECULE
ASD03180012
  54   56    0    0    0
SMALL
NO_CHARGES


@<TRIPOS>ATOM
   1 C1             7.4431     3.6358     1.7848 C.ar    
   2 C2             7.2015     4.9755     2.0318 C.ar    
   3 C3             5.9921     5.5388     1.6653 C.ar    
   4 C4             5.0261     4.7629     1.0527 C.ar    
   5 C5             5.2681     3.4243     0.8063 C.ar    
   6 C6             6.4763     2.8610     1.1723 C.ar    
   7 S7             4.0359     2.4357     0.0259 S.o2    
   8 O8             2.7831     3.0142     0.3652 O.2     
   9 N9             4.2137     2.6309    -1.6089 N.am    
  10 O10            4.3691     1.0832     0.3071 O.2     
  11 C11            3.4083     3.6272    -2.3195 C.3     
  12 C12            5.1764     1.8073    -2.3445 C.3     
  13 C13            4.4584     0.6487    -2.9874 C.ar    
  14 C14            4.1906     4.9092    -2.4444 C.2     
  15 N15            3.6456     5.9733    -3.0666 N.am    
  16 C16            4.4072     7.1315    -3.2704 C.ar    
  17 O17            5.3107     4.9833    -1.9850 O.2     
  18 C18            4.0079     0.7517    -4.2904 C.ar    
  19 C19            3.3494    -0.3109    -4.8800 C.ar    
  20 C20            3.1415    -1.4769    -4.1668 C.ar    
  21 C21            3.5926    -1.5802    -2.8644 C.ar    
  22 C22            4.2552    -0.5188    -2.2762 C.ar    
  23 C23            4.2305     7.8850    -4.4233 C.ar    
  24 C24            4.9813     9.0265    -4.6240 C.ar    
  25 C25            5.9121     9.4210    -3.6745 C.ar    
  26 C26            6.0900     8.6684    -2.5218 C.ar    
  27 C27            5.3347     7.5292    -2.3171 C.ar    
  28 Cl28           8.4150     5.9493     2.8016 Cl      
  29 O29            6.6510    10.5453    -3.8730 O.3     
  30 C30            6.4162    11.2710    -5.0814 C.3     
  31 Cl31           7.2556     9.1622    -1.3339 Cl      
  32 C32            3.3656    -2.8510    -2.0869 C.3     
  33 H33            8.3887     3.1967     2.0667 H       
  34 H34            5.8027     6.5844     1.8581 H       
  35 H35            4.0819     5.2023     0.7669 H       
  36 H36            6.6648     1.8152     0.9795 H       
  37 H37            3.1621     3.2535    -3.3134 H       
  38 H38            2.4895     3.8149    -1.7640 H       
  39 H39            5.6561     2.4104    -3.1155 H       
  40 H40            5.9322     1.4295    -1.6560 H       
  41 H41            2.7260     5.9373    -3.3732 H       
  42 H42            4.1703     1.6626    -4.8475 H       
  43 H43            2.9969    -0.2302    -5.8976 H       
  44 H44            2.6263    -2.3070    -4.6272 H       
  45 H45            4.6110    -0.6009    -1.2598 H       
  46 H46            3.5061     7.5781    -5.1631 H       
  47 H47            4.8438     9.6121    -5.5210 H       
  48 H48            5.4695     6.9460    -1.4181 H       
  49 H49            7.0692    12.1431    -5.1142 H       
  50 H50            6.6244    10.6288    -5.9372 H       
  51 H51            5.3759    11.5946    -5.1146 H       
  52 H52            4.2081    -3.5257    -2.2394 H       
  53 H53            3.2752    -2.6168    -1.0262 H       
  54 H54            2.4495    -3.3298    -2.4327 H       
@<TRIPOS>BOND
   1    1    2 ar
   2    1    6 ar
   3    1   33 1
   4    2    3 ar
   5    2   28 1
   6    3    4 ar
   7    3   34 1
   8    4    5 ar
   9    4   35 1
  10    5    6 ar
  11    5    7 1
  12    6   36 1
  13    7    8 2
  14    7    9 am
  15    7   10 2
  16    9   11 1
  17    9   12 1
  18   11   14 1
  19   11   37 1
  20   11   38 1
  21   12   13 1
  22   12   39 1
  23   12   40 1
  24   13   18 ar
  25   13   22 ar
  26   14   15 am
  27   14   17 2
  28   15   16 1
  29   15   41 1
  30   16   23 ar
  31   16   27 ar
  32   18   19 ar
  33   18   42 1
  34   19   20 ar
  35   19   43 1
  36   20   21 ar
  37   20   44 1
  38   21   22 ar
  39   21   32 1
  40   22   45 1
  41   23   24 ar
  42   23   46 1
  43   24   25 ar
  44   24   47 1
  45   25   26 ar
  46   25   29 1
  47   26   27 ar
  48   26   31 1
  49   27   48 1
  50   29   30 1
  51   30   49 1
  52   30   50 1
  53   30   51 1
  54   32   52 1
  55   32   53 1
  56   32   54 1

#	End of record

