#	Name: ASD01913225
#	Creating user name:	WinNT
#	Creation time:	15. 06. 2019 20:01

#	Modifying user name:	WinNT
#	Modification time:	15. 06. 2019 20:01

#	Program:	/corina/corina34_cracker 3.40 0067  02.08.2006

@<TRIPOS>MOLECULE
ASD01913225
  44   47    0    0    0
SMALL
NO_CHARGES


@<TRIPOS>ATOM
   1 C1             0.7298     1.1799    -1.0049 C.3     
   2 N2             0.3533    -0.1342    -0.4728 N.am    
   3 C3             1.3091    -0.7960     0.4307 C.3     
   4 C4             2.5769    -1.0976    -0.3669 C.3     
   5 C5             3.0149     0.1092    -1.1543 C.ar    
   6 C6             4.3365     0.1508    -1.5893 C.ar    
   7 C7             4.8013     1.2245    -2.3233 C.ar    
   8 C8             3.9484     2.2676    -2.6311 C.ar    
   9 C9             2.6369     2.2306    -2.1979 C.ar    
  10 C10            2.1689     1.1521    -1.4552 C.ar    
  11 F11            1.8029     3.2504    -2.4975 F       
  12 F12            5.1720    -0.8679    -1.2905 F       
  13 C13           -0.8202    -0.7121    -0.7974 C.2     
  14 O14           -1.0612    -1.8459    -0.4311 O.2     
  15 C15           -1.8141     0.0327    -1.5988 C.ar    
  16 C16           -2.6100    -0.6400    -2.5238 C.ar    
  17 C17           -3.5457     0.0698    -3.2755 C.ar    
  18 C18           -3.6786     1.4518    -3.0957 C.ar    
  19 C19           -2.8847     2.1106    -2.1764 C.ar    
  20 C20           -1.9611     1.4112    -1.4258 C.ar    
  21 C21           -4.3677    -0.6128    -4.2289 C.1     
  22 C22           -5.0417    -1.1724    -5.0105 C.1     
  23 C23           -5.8637    -1.8549    -5.9639 C.ar    
  24 C24           -6.7992    -1.1367    -6.7136 C.ar    
  25 C25           -7.5849    -1.8109    -7.6303 C.ar    
  26 C26           -7.4127    -3.1817    -7.7707 C.ar    
  27 C27           -6.4683    -3.8309    -6.9968 C.ar    
  28 N28           -5.7277    -3.1667    -6.1335 N.ar    
  29 Cl29          -4.8423     2.3393    -4.0295 Cl      
  30 H30            0.0894     1.4252    -1.8521 H       
  31 H31            0.6074     1.9345    -0.2280 H       
  32 H32            1.5465    -0.1353     1.2646 H       
  33 H33            0.8796    -1.7249     0.8059 H       
  34 H34            3.3727    -1.3855     0.3201 H       
  35 H35            2.3812    -1.9216    -1.0530 H       
  36 H36            5.8286     1.2491    -2.6556 H       
  37 H37            4.3056     3.1082    -3.2074 H       
  38 H38           -2.5024    -1.7062    -2.6581 H       
  39 H39           -2.9902     3.1769    -2.0415 H       
  40 H40           -1.3471     1.9319    -0.7059 H       
  41 H41           -6.9072    -0.0706    -6.5786 H       
  42 H42           -8.3166    -1.2830    -8.2238 H       
  43 H43           -8.0116    -3.7361    -8.4781 H       
  44 H44           -6.3334    -4.8970    -7.1046 H       
@<TRIPOS>BOND
   1    1    2 1
   2    1   10 1
   3    1   30 1
   4    1   31 1
   5    2    3 1
   6    2   13 am
   7    3    4 1
   8    3   32 1
   9    3   33 1
  10    4    5 1
  11    4   34 1
  12    4   35 1
  13    5    6 ar
  14    5   10 ar
  15    6    7 ar
  16    6   12 1
  17    7    8 ar
  18    7   36 1
  19    8    9 ar
  20    8   37 1
  21    9   10 ar
  22    9   11 1
  23   13   14 2
  24   13   15 1
  25   15   16 ar
  26   15   20 ar
  27   16   17 ar
  28   16   38 1
  29   17   18 ar
  30   17   21 1
  31   18   19 ar
  32   18   29 1
  33   19   20 ar
  34   19   39 1
  35   20   40 1
  36   21   22 3
  37   22   23 1
  38   23   24 ar
  39   23   28 ar
  40   24   25 ar
  41   24   41 1
  42   25   26 ar
  43   25   42 1
  44   26   27 ar
  45   26   43 1
  46   27   28 ar
  47   27   44 1

#	End of record

