#	Name: ASD04882242
#	Creating user name:	WinNT
#	Creation time:	15. 06. 2019 20:54

#	Modifying user name:	WinNT
#	Modification time:	15. 06. 2019 20:54

#	Program:	/corina/corina34_cracker 3.40 0067  02.08.2006

@<TRIPOS>MOLECULE
ASD04882242
  77   82    0    0    0
SMALL
NO_CHARGES


@<TRIPOS>ATOM
   1 N1            -1.7701     0.5965    -1.2920 N.am    
   2 C2            -1.4833    -0.7678    -1.1540 C.ar    
   3 C3            -2.5190    -1.7060    -1.1757 C.ar    
   4 C4            -2.2358    -3.0601    -1.0388 C.ar    
   5 C5            -0.9343    -3.4821    -0.8814 C.ar    
   6 C6             0.1062    -2.5492    -0.8584 C.ar    
   7 C7            -0.1752    -1.1876    -1.0020 C.ar    
   8 N8            -3.8365    -1.2837    -1.3341 N.3     
   9 C9            -4.2795    -0.4947    -0.1761 C.3     
  10 C10           -4.7318    -2.4264    -1.5628 C.3     
  11 C11           -6.1532    -1.9157    -1.8105 C.3     
  12 N12           -6.5962    -1.1266    -0.6526 N.3     
  13 C13           -5.7008     0.0160    -0.4238 C.3     
  14 C14            1.5002    -3.0015    -0.6894 C.2     
  15 O15            2.4048    -2.1891    -0.6695 O.2     
  16 C16           -0.8845     1.5180    -0.8641 C.2     
  17 O17            0.1188     1.1682    -0.2705 O.2     
  18 C18           -1.1298     2.9419    -1.1138 C.2     
  19 N19            1.7711    -4.3151    -0.5570 N.am    
  20 C20           -7.9177    -0.7031    -0.8115 C.ar    
  21 C21           -8.2659     0.1017    -1.8885 C.ar    
  22 C22           -8.8879    -1.0906     0.1044 C.ar    
  23 C23          -10.1933    -0.6700    -0.0557 C.ar    
  24 C24          -10.5356     0.1357    -1.1264 C.ar    
  25 C25           -9.5736     0.5188    -2.0426 C.ar    
  26 C26           -0.3189     3.9740    -0.7367 C.2     
  27 C27           -0.9365     5.1545    -1.1785 C.2     
  28 C28           -2.0827     4.7959    -1.7980 C.2     
  29 O29           -2.1931     3.4616    -1.7613 O.3     
  30 C30           -8.5160    -1.9693     1.2709 C.3     
  31 C31            3.1554    -4.7642    -0.3891 C.3     
  32 C32            3.1847    -6.2658    -0.2644 C.ar    
  33 C33            3.3111    -7.0501    -1.3968 C.ar    
  34 C34            3.3383    -8.4294    -1.2906 C.ar    
  35 C35            3.2399    -9.0309    -0.0530 C.ar    
  36 C36            3.1128    -8.2454     1.0930 C.ar    
  37 C37            3.0912    -6.8553     0.9798 C.ar    
  38 C38            3.0068    -8.8842     2.4236 C.2     
  39 C39            3.3827   -10.1585     2.7421 C.2     
  40 C40            3.1136   -10.3579     4.0963 C.2     
  41 N41            2.5975    -9.2590     4.5855 N.2     
  42 N42            2.5217    -8.3082     3.5597 N.pl3   
  43 C43            2.0044    -6.9432     3.6833 C.3     
  44 H44           -2.6044     0.8779    -1.6992 H       
  45 H45           -3.0382    -3.7828    -1.0555 H       
  46 H46           -0.7175    -4.5348    -0.7753 H       
  47 H47            0.6267    -0.4645    -0.9847 H       
  48 H48           -4.2683    -1.1207     0.7162 H       
  49 H49           -3.6081     0.3523    -0.0349 H       
  50 H50           -4.3903    -2.9876    -2.4326 H       
  51 H51           -4.7258    -3.0742    -0.6863 H       
  52 H52           -6.1644    -1.2897    -2.7028 H       
  53 H53           -6.8245    -2.7627    -1.9517 H       
  54 H54           -6.0423     0.5772     0.4459 H       
  55 H55           -5.7069     0.6639    -1.3004 H       
  56 H56            1.0495    -4.9631    -0.5728 H       
  57 H57           -7.5149     0.4014    -2.6045 H       
  58 H58          -10.9480    -0.9709     0.6559 H       
  59 H59          -11.5575     0.4626    -1.2497 H       
  60 H60           -9.8442     1.1481    -2.8776 H       
  61 H61            0.6163     3.8969    -0.2022 H       
  62 H62           -0.5656     6.1603    -1.0476 H       
  63 H63           -2.7912     5.4734    -2.2512 H       
  64 H64           -8.2264    -1.3464     2.1172 H       
  65 H65           -9.3713    -2.5852     1.5489 H       
  66 H66           -7.6815    -2.6118     0.9902 H       
  67 H67            3.7436    -4.4600    -1.2549 H       
  68 H68            3.5760    -4.3166     0.5113 H       
  69 H69            3.3884    -6.5839    -2.3679 H       
  70 H70            3.4364    -9.0363    -2.1785 H       
  71 H71            3.2610   -10.1076     0.0286 H       
  72 H72            2.9930    -6.2419     1.8633 H       
  73 H73            3.8116   -10.8829     2.0656 H       
  74 H74            3.2997   -11.2671     4.6487 H       
  75 H75            2.8320    -6.2552     3.8558 H       
  76 H76            1.4871    -6.6661     2.7647 H       
  77 H77            1.3091    -6.8926     4.5212 H       
@<TRIPOS>BOND
   1    1    2 1
   2    1   16 am
   3    1   44 1
   4    2    3 ar
   5    2    7 ar
   6    3    4 ar
   7    3    8 1
   8    4    5 ar
   9    4   45 1
  10    5    6 ar
  11    5   46 1
  12    6    7 ar
  13    6   14 1
  14    7   47 1
  15    8    9 1
  16    8   10 1
  17    9   13 1
  18    9   48 1
  19    9   49 1
  20   10   11 1
  21   10   50 1
  22   10   51 1
  23   11   12 1
  24   11   52 1
  25   11   53 1
  26   12   13 1
  27   12   20 1
  28   13   54 1
  29   13   55 1
  30   14   15 2
  31   14   19 am
  32   16   17 2
  33   16   18 1
  34   18   26 2
  35   18   29 1
  36   19   31 1
  37   19   56 1
  38   20   21 ar
  39   20   22 ar
  40   21   25 ar
  41   21   57 1
  42   22   23 ar
  43   22   30 1
  44   23   24 ar
  45   23   58 1
  46   24   25 ar
  47   24   59 1
  48   25   60 1
  49   26   27 1
  50   26   61 1
  51   27   28 2
  52   27   62 1
  53   28   29 1
  54   28   63 1
  55   30   64 1
  56   30   65 1
  57   30   66 1
  58   31   32 1
  59   31   67 1
  60   31   68 1
  61   32   33 ar
  62   32   37 ar
  63   33   34 ar
  64   33   69 1
  65   34   35 ar
  66   34   70 1
  67   35   36 ar
  68   35   71 1
  69   36   37 ar
  70   36   38 1
  71   37   72 1
  72   38   39 2
  73   38   42 1
  74   39   40 1
  75   39   73 1
  76   40   41 2
  77   40   74 1
  78   41   42 1
  79   42   43 1
  80   43   75 1
  81   43   76 1
  82   43   77 1

#	End of record

