#	Name: ASD06600082
#	Creating user name:	WinNT
#	Creation time:	15. 06. 2019 21:07

#	Modifying user name:	WinNT
#	Modification time:	15. 06. 2019 21:07

#	Program:	/corina/corina34_cracker 3.40 0067  02.08.2006

@<TRIPOS>MOLECULE
ASD06600082
 235  235    0    0    0
SMALL
NO_CHARGES


@<TRIPOS>ATOM
   1 C1             0.8712    -1.3861    -4.1162 C.2     
   2 O2             0.5671    -2.3953    -4.7161 O.2     
   3 N3             3.2071    -1.9321    -4.4827 N.am    
   4 C4             2.2696    -0.8356    -4.2278 C.3     
   5 C5             2.3323     0.1675    -5.3814 C.3     
   6 C6             1.4553     1.3775    -5.0532 C.3     
   7 C7             2.0336     2.1133    -3.8428 C.3     
   8 C8             1.4199     2.3229    -6.2556 C.3     
   9 C9            -2.3446    -0.1034    -2.9431 C.2     
  10 O10           -1.8902     1.0010    -2.7316 O.2     
  11 N11           -0.0431    -0.7537    -3.3542 N.am    
  12 C12           -1.4252    -1.2380    -3.3150 C.3     
  13 C13           -1.5454    -2.3537    -2.2750 C.3     
  14 C14           -0.7078    -3.5553    -2.7170 C.3     
  15 C15           -0.7272    -4.6217    -1.6200 C.3     
  16 C16           -1.2923    -4.1382    -4.0053 C.3     
  17 C17           -5.8183     0.2331    -1.8551 C.2     
  18 O18           -6.0336    -0.9601    -1.8819 O.2     
  19 N19           -3.6720    -0.3159    -2.8456 N.am    
  20 C20           -4.5658     0.7871    -2.4841 C.3     
  21 C21           -4.9333     1.5786    -3.7408 C.3     
  22 C22           -3.6617     2.1410    -4.3793 C.3     
  23 O23           -5.5922     0.7167    -4.6709 O.3     
  24 C24           -8.9862     1.6293    -0.6814 C.2     
  25 O25           -8.7060     2.7417    -1.0750 O.2     
  26 N26           -6.6991     1.0638    -1.2630 N.am    
  27 C27           -7.9510     0.5348    -0.7159 C.3     
  28 C28           -7.7088     0.0169     0.7032 C.3     
  29 C29           -6.7523    -1.1762     0.6545 C.3     
  30 C30           -6.5101    -1.6941     2.0736 C.3     
  31 C31           -5.5536    -2.8872     2.0249 C.3     
  32 N32           -5.3211    -3.3845     3.3875 N.3     
  33 C33          -12.2514     2.1280     0.8847 C.2     
  34 O34          -12.1488     1.1190     1.5498 O.2     
  35 N35          -10.2236     1.3721    -0.2132 N.am    
  36 C36          -11.2300     2.4361    -0.1796 C.3     
  37 C37          -11.9229     2.5258    -1.5408 C.3     
  38 C38          -10.9095     2.9605    -2.6013 C.3     
  39 C39          -11.5702     2.9300    -3.9810 C.3     
  40 C40          -10.4302     4.3812    -2.2967 C.3     
  41 C41          -15.3072     3.7689     2.1668 C.2     
  42 O42          -15.2238     4.7068     1.4023 O.2     
  43 N43          -13.2790     2.9738     1.0976 N.am    
  44 C44          -14.2719     2.6743     2.1322 C.3     
  45 C45          -17.9606     4.8237     4.4493 C.2     
  46 O46          -17.6030     4.0497     5.3118 O.2     
  47 N47          -16.3258     3.7055     3.0471 N.am    
  48 C48          -17.3322     4.7696     3.0806 C.3     
  49 C49          -18.4117     4.4837     2.0348 C.3     
  50 O50          -19.1124     3.2893     2.3877 O.3     
  51 C51          -20.9084     6.3873     5.9423 C.2     
  52 O52          -21.2444     6.9623     4.9287 O.2     
  53 N53          -18.9200     5.7323     4.7149 N.am    
  54 C54          -19.5309     5.7849     6.0454 C.3     
  55 C55          -18.6663     6.6443     6.9699 C.3     
  56 C56          -17.2703     6.0281     7.0813 C.3     
  57 O57          -18.5627     7.9649     6.4337 O.3     
  58 C58          -23.8879     6.5472     8.1264 C.2     
  59 O59          -23.3274     6.0281     9.0683 O.2     
  60 N60          -21.7669     6.2870     6.9764 N.am    
  61 C61          -23.1411     6.7752     6.8375 C.3     
  62 C62          -26.1165     5.2991     9.7919 C.2     
  63 O63          -25.5372     4.4678     9.1253 O.2     
  64 N64          -25.1787     6.9203     8.2325 N.am    
  65 C65          -26.0223     6.7578     9.4256 C.3     
  66 C66          -27.4229     7.3021     9.0739 C.3     
  67 C67          -27.4482     7.2215     7.5246 C.3     
  68 C68          -25.9766     7.5646     7.1734 C.3     
  69 C69          -28.2084     3.2566    11.9864 C.2     
  70 O70          -28.9643     4.1770    12.2150 O.2     
  71 N71          -26.8444     4.9182    10.8603 N.am    
  72 C72          -26.9359     3.5001    11.2165 C.3     
  73 C73          -25.7346     3.1129    12.0813 C.3     
  74 C74          -29.5784     0.5601    14.0394 C.2     
  75 O75          -28.5308    -0.0510    14.0349 O.2     
  76 N76          -28.5063     2.0161    12.4208 N.am    
  77 C77          -29.7432     1.7794    13.1692 C.3     
  78 C78          -30.8969     1.5547    12.1896 C.3     
  79 O79          -30.6668     0.3537    11.4501 O.3     
  80 C80          -30.7447    -2.2730    14.8647 C.2     
  81 O81          -31.0663    -2.1743    13.7043 O.2     
  82 N82          -30.5951     0.1488    14.8226 N.am    
  83 C83          -30.4349    -1.0365    15.6686 C.3     
  84 C84          -31.3935    -0.9478    16.8577 C.3     
  85 C85          -31.0005     0.2370    17.7424 C.3     
  86 C86          -32.0308     0.4018    18.8614 C.3     
  87 C87          -29.6209    -0.0179    18.3528 C.3     
  88 O88          -30.6633    -3.4840    15.4379 O.3     
  89 C89            4.4919    -1.8253    -4.0897 C.2     
  90 O90            4.8941    -0.7881    -3.6068 O.2     
  91 C91           21.7961    -8.6289    -1.7516 C.3     
  92 C92           20.8450    -7.4416    -1.5884 C.3     
  93 C93           19.4579    -7.8240    -2.1086 C.3     
  94 C94           18.5068    -6.6367    -1.9454 C.3     
  95 C95           17.1197    -7.0192    -2.4655 C.3     
  96 C96           16.1686    -5.8318    -2.3024 C.3     
  97 C97           14.7815    -6.2143    -2.8225 C.3     
  98 C98           13.8304    -5.0270    -2.6594 C.3     
  99 C99           12.4433    -5.4094    -3.1795 C.3     
 100 C100          11.4922    -4.2221    -3.0164 C.3     
 101 C101          10.1051    -4.6046    -3.5365 C.3     
 102 C102           9.1540    -3.4172    -3.3733 C.3     
 103 C103           7.7669    -3.7997    -3.8935 C.3     
 104 C104           6.8158    -2.6124    -3.7303 C.3     
 105 C105           5.4287    -2.9948    -4.2504 C.3     
 106 H106           2.9032    -2.7349    -4.9344 H       
 107 H107           2.5389    -0.3363    -3.2971 H       
 108 H108           3.3626     0.4935    -5.5238 H       
 109 H109           1.9714    -0.3058    -6.2945 H       
 110 H110           0.4436     1.0418    -4.8251 H       
 111 H111           1.3829     2.9472    -3.5795 H       
 112 H112           2.1032     1.4264    -2.9993 H       
 113 H113           3.0266     2.4904    -4.0872 H       
 114 H114           1.0079     1.7988    -7.1179 H       
 115 H115           0.7951     3.1849    -6.0218 H       
 116 H116           2.4316     2.6586    -6.4837 H       
 117 H117           0.2140     0.0220    -2.8316 H       
 118 H118          -1.7028    -1.6241    -4.2958 H       
 119 H119          -1.1837    -1.9932    -1.3120 H       
 120 H120          -2.5894    -2.6529    -2.1822 H       
 121 H121           0.3191    -3.2365    -2.8956 H       
 122 H122          -1.7542    -4.9406    -1.4414 H       
 123 H123          -0.1306    -5.4778    -1.9350 H       
 124 H124          -0.3109    -4.2065    -0.7023 H       
 125 H125          -2.3192    -4.4570    -3.8266 H       
 126 H126          -1.2785    -3.3785    -4.7868 H       
 127 H127          -0.6956    -4.9943    -4.3202 H       
 128 H128          -4.0354    -1.1992    -3.0148 H       
 129 H129          -4.0631     1.4445    -1.7747 H       
 130 H130          -5.5984     2.3992    -3.4718 H       
 131 H131          -3.0128     1.3191    -4.6816 H       
 132 H132          -3.9265     2.7354    -5.2537 H       
 133 H133          -3.1399     2.7693    -3.6573 H       
 134 H134          -6.4082     0.3234    -4.3326 H       
 135 H135          -6.5042     2.0118    -1.1990 H       
 136 H136          -8.3061    -0.2815    -1.3449 H       
 137 H137          -7.2703     0.8096     1.3094 H       
 138 H138          -8.6563    -0.2947     1.1429 H       
 139 H139          -7.1908    -1.9689     0.0483 H       
 140 H140          -5.8048    -0.8646     0.2148 H       
 141 H141          -6.0716    -0.9014     2.6798 H       
 142 H142          -7.4576    -2.0057     2.5133 H       
 143 H143          -5.9921    -3.6799     1.4187 H       
 144 H144          -4.6061    -2.5756     1.5852 H       
 145 H145          -6.1917    -3.6194     3.8401 H       
 146 H146          -4.6919    -4.1733     3.3821 H       
 147 H147         -10.4477     0.4824     0.1016 H       
 148 H148         -10.7464     3.3867     0.0452 H       
 149 H149         -12.3305     1.5503    -1.8060 H       
 150 H150         -12.7310     3.2555    -1.4897 H       
 151 H151         -10.0582     2.2799    -2.5910 H       
 152 H152         -12.4215     3.6106    -3.9913 H       
 153 H153         -10.8482     3.2397    -4.7365 H       
 154 H154         -11.9116     1.9178    -4.1980 H       
 155 H155         -11.2815     5.0619    -2.3070 H       
 156 H156          -9.9595     4.4030    -1.3138 H       
 157 H157          -9.7082     4.6910    -3.0523 H       
 158 H158         -13.3610     3.7808     0.5657 H       
 159 H159         -13.7783     2.6104     3.1019 H       
 160 H160         -14.7556     1.7237     1.9074 H       
 161 H161         -16.3925     2.9554     3.6585 H       
 162 H162         -16.8575     5.7258     2.8607 H       
 163 H163         -19.1119     5.3182     1.9978 H       
 164 H164         -17.9461     4.3565     1.0575 H       
 165 H165         -19.8132     3.0465     1.7672 H       
 166 H166         -19.2060     6.3513     4.0251 H       
 167 H167         -19.6050     4.7760     6.4513 H       
 168 H168         -19.1239     6.6884     7.9582 H       
 169 H169         -16.7685     6.0882     6.1156 H       
 170 H170         -16.6909     6.5733     7.8264 H       
 171 H171         -17.3570     4.9838     7.3814 H       
 172 H172         -19.4117     8.4171     6.3351 H       
 173 H173         -21.4748     5.8917     7.8126 H       
 174 H174         -23.6378     6.2375     6.0298 H       
 175 H175         -23.1268     7.8410     6.6095 H       
 176 H176         -25.6008     7.3223    10.2573 H       
 177 H177         -28.2009     6.6724     9.5056 H       
 178 H178         -27.5308     8.3339     9.4082 H       
 179 H179         -27.7094     6.2176     7.1899 H       
 180 H180         -28.1306     7.9611     7.1060 H       
 181 H181         -25.8229     8.6436     7.1860 H       
 182 H182         -25.7143     7.1544     6.1982 H       
 183 H183         -27.3077     5.5830    11.3935 H       
 184 H184         -26.9395     2.8970    10.3086 H       
 185 H185         -25.7310     3.7160    12.9892 H       
 186 H186         -25.8027     2.0578    12.3463 H       
 187 H187         -24.8143     3.2890    11.5244 H       
 188 H188         -27.9016     1.2799    12.2379 H       
 189 H189         -29.9609     2.6453    13.7944 H       
 190 H190         -31.8317     1.4670    12.7433 H       
 191 H191         -30.9595     2.3983    11.5023 H       
 192 H192         -31.3603     0.1481    10.8084 H       
 193 H193         -31.4330     0.6375    14.8263 H       
 194 H194         -29.4086    -1.0873    16.0323 H       
 195 H195         -32.4115    -0.8078    16.4941 H       
 196 H196         -31.3385    -1.8687    17.4382 H       
 197 H197         -30.9693     1.1452    17.1405 H       
 198 H198         -32.0619    -0.5065    19.4633 H       
 199 H199         -31.7508     1.2459    19.4917 H       
 200 H200         -33.0136     0.5834    18.4265 H       
 201 H201         -29.6520    -0.9261    18.9547 H       
 202 H202         -28.8869    -0.1353    17.5556 H       
 203 H203         -29.3409     0.8262    18.9831 H       
 204 H204         -30.8713    -4.2476    14.8823 H       
 205 H205          22.7843    -8.3564    -1.3810 H       
 206 H206          21.4169    -9.4788    -1.1842 H       
 207 H207          21.8646    -8.8973    -2.8058 H       
 208 H208          20.7764    -7.1731    -0.5342 H       
 209 H209          21.2242    -6.5917    -2.1559 H       
 210 H210          19.5264    -8.0925    -3.1628 H       
 211 H211          19.0787    -8.6739    -1.5411 H       
 212 H212          18.4382    -6.3683    -0.8912 H       
 213 H213          18.8860    -5.7868    -2.5129 H       
 214 H214          17.1882    -7.2876    -3.5197 H       
 215 H215          16.7405    -7.8691    -1.8981 H       
 216 H216          16.1000    -5.5634    -1.2482 H       
 217 H217          16.5478    -4.9819    -2.8698 H       
 218 H218          14.8500    -6.4827    -3.8767 H       
 219 H219          14.4023    -7.0642    -2.2551 H       
 220 H220          13.7618    -4.7585    -1.6052 H       
 221 H221          14.2096    -4.1771    -3.2268 H       
 222 H222          12.5118    -5.6779    -4.2337 H       
 223 H223          12.0641    -6.2593    -2.6121 H       
 224 H224          11.4237    -3.9537    -1.9622 H       
 225 H225          11.8714    -3.3722    -3.5838 H       
 226 H226          10.1736    -4.8730    -4.5907 H       
 227 H227           9.7259    -5.4545    -2.9690 H       
 228 H228           9.0855    -3.1488    -2.3191 H       
 229 H229           9.5332    -2.5673    -3.9408 H       
 230 H230           7.8354    -4.0681    -4.9477 H       
 231 H231           7.3877    -4.6496    -3.3260 H       
 232 H232           6.7473    -2.3439    -2.6761 H       
 233 H233           7.1950    -1.7625    -4.2977 H       
 234 H234           5.0495    -3.8447    -3.6830 H       
 235 H235           5.4972    -3.2633    -5.3046 H       
@<TRIPOS>BOND
   1    1    2 2
   2    1    4 1
   3    1   11 am
   4    3   89 am
   5    3    4 1
   6    3  106 1
   7    4    5 1
   8    4  107 1
   9    5    6 1
  10    5  108 1
  11    5  109 1
  12    6    7 1
  13    6    8 1
  14    6  110 1
  15    7  111 1
  16    7  112 1
  17    7  113 1
  18    8  114 1
  19    8  115 1
  20    8  116 1
  21    9   10 2
  22    9   12 1
  23    9   19 am
  24   11   12 1
  25   11  117 1
  26   12   13 1
  27   12  118 1
  28   13   14 1
  29   13  119 1
  30   13  120 1
  31   14   15 1
  32   14   16 1
  33   14  121 1
  34   15  122 1
  35   15  123 1
  36   15  124 1
  37   16  125 1
  38   16  126 1
  39   16  127 1
  40   17   18 2
  41   17   20 1
  42   17   26 am
  43   19   20 1
  44   19  128 1
  45   20   21 1
  46   20  129 1
  47   21   22 1
  48   21   23 1
  49   21  130 1
  50   22  131 1
  51   22  132 1
  52   22  133 1
  53   23  134 1
  54   24   25 2
  55   24   27 1
  56   24   35 am
  57   26   27 1
  58   26  135 1
  59   27   28 1
  60   27  136 1
  61   28   29 1
  62   28  137 1
  63   28  138 1
  64   29   30 1
  65   29  139 1
  66   29  140 1
  67   30   31 1
  68   30  141 1
  69   30  142 1
  70   31   32 1
  71   31  143 1
  72   31  144 1
  73   32  145 1
  74   32  146 1
  75   33   34 2
  76   33   36 1
  77   33   43 am
  78   35   36 1
  79   35  147 1
  80   36   37 1
  81   36  148 1
  82   37   38 1
  83   37  149 1
  84   37  150 1
  85   38   39 1
  86   38   40 1
  87   38  151 1
  88   39  152 1
  89   39  153 1
  90   39  154 1
  91   40  155 1
  92   40  156 1
  93   40  157 1
  94   41   42 2
  95   41   44 1
  96   41   47 am
  97   43   44 1
  98   43  158 1
  99   44  159 1
 100   44  160 1
 101   45   46 2
 102   45   48 1
 103   45   53 am
 104   47   48 1
 105   47  161 1
 106   48   49 1
 107   48  162 1
 108   49   50 1
 109   49  163 1
 110   49  164 1
 111   50  165 1
 112   51   52 2
 113   51   54 1
 114   51   60 am
 115   53   54 1
 116   53  166 1
 117   54   55 1
 118   54  167 1
 119   55   56 1
 120   55   57 1
 121   55  168 1
 122   56  169 1
 123   56  170 1
 124   56  171 1
 125   57  172 1
 126   58   59 2
 127   58   61 1
 128   58   64 am
 129   60   61 1
 130   60  173 1
 131   61  174 1
 132   61  175 1
 133   62   63 2
 134   62   71 am
 135   62   65 1
 136   64   65 1
 137   64   68 1
 138   65   66 1
 139   65  176 1
 140   66   67 1
 141   66  177 1
 142   66  178 1
 143   67   68 1
 144   67  179 1
 145   67  180 1
 146   68  181 1
 147   68  182 1
 148   69   70 2
 149   69   72 1
 150   69   76 am
 151   71   72 1
 152   71  183 1
 153   72   73 1
 154   72  184 1
 155   73  185 1
 156   73  186 1
 157   73  187 1
 158   74   75 2
 159   74   77 1
 160   74   82 am
 161   76   77 1
 162   76  188 1
 163   77   78 1
 164   77  189 1
 165   78   79 1
 166   78  190 1
 167   78  191 1
 168   79  192 1
 169   80   81 2
 170   80   83 1
 171   80   88 1
 172   82   83 1
 173   82  193 1
 174   83   84 1
 175   83  194 1
 176   84   85 1
 177   84  195 1
 178   84  196 1
 179   85   86 1
 180   85   87 1
 181   85  197 1
 182   86  198 1
 183   86  199 1
 184   86  200 1
 185   87  201 1
 186   87  202 1
 187   87  203 1
 188   88  204 1
 189   89   90 2
 190   89  105 1
 191   91   92 1
 192   91  205 1
 193   91  206 1
 194   91  207 1
 195   92   93 1
 196   92  208 1
 197   92  209 1
 198   93   94 1
 199   93  210 1
 200   93  211 1
 201   94   95 1
 202   94  212 1
 203   94  213 1
 204   95   96 1
 205   95  214 1
 206   95  215 1
 207   96   97 1
 208   96  216 1
 209   96  217 1
 210   97   98 1
 211   97  218 1
 212   97  219 1
 213   98   99 1
 214   98  220 1
 215   98  221 1
 216   99  100 1
 217   99  222 1
 218   99  223 1
 219  100  101 1
 220  100  224 1
 221  100  225 1
 222  101  102 1
 223  101  226 1
 224  101  227 1
 225  102  103 1
 226  102  228 1
 227  102  229 1
 228  103  104 1
 229  103  230 1
 230  103  231 1
 231  104  105 1
 232  104  232 1
 233  104  233 1
 234  105  234 1
 235  105  235 1

#	End of record

