#	Name: ASD01910818
#	Creating user name:	WinNT
#	Creation time:	15. 06. 2019 19:56

#	Modifying user name:	WinNT
#	Modification time:	15. 06. 2019 19:56

#	Program:	/corina/corina34_cracker 3.40 0067  02.08.2006

@<TRIPOS>MOLECULE
ASD01910818
  53   56    0    0    0
SMALL
NO_CHARGES


@<TRIPOS>ATOM
   1 C1             0.0507     1.6466    -0.2285 C.ar    
   2 C2             0.0138     0.2614    -0.2557 C.ar    
   3 N3             1.1504    -0.4150    -0.2331 N.ar    
   4 C4             2.3138     0.2172    -0.1851 C.ar    
   5 N5             2.3838     1.5400    -0.1580 N.ar    
   6 C6             1.2847     2.2758    -0.1784 C.ar    
   7 N7             3.4838    -0.5218    -0.1622 N.3     
   8 C8             4.6602     0.3563    -0.1092 C.3     
   9 C9             5.9188    -0.4932     0.0972 C.3     
  10 N10            5.9611    -1.5271    -0.9480 N.am    
  11 C11            4.7652    -2.3583    -1.1534 C.3     
  12 C12            3.5520    -1.4353    -1.3105 C.3     
  13 C13            7.0665    -1.7084    -1.6974 C.2     
  14 C14            7.1355    -2.8367    -2.6550 C.ar    
  15 O15            8.0067    -0.9464    -1.5875 O.2     
  16 C16            7.7549    -2.6842    -3.9010 C.ar    
  17 C17            7.8005    -3.7590    -4.7694 C.ar    
  18 N18            7.2715    -4.9193    -4.4430 N.ar    
  19 C19            6.6728    -5.1137    -3.2722 C.ar    
  20 C20            6.5898    -4.0805    -2.3360 C.ar    
  21 C21            6.1126    -6.3955    -2.9659 C.1     
  22 C22            5.6534    -7.4464    -2.7148 C.1     
  23 C23            5.0933    -8.7282    -2.4085 C.ar    
  24 C24            4.4617    -8.9432    -1.1805 C.ar    
  25 C25            3.9246   -10.1804    -0.8925 C.ar    
  26 C26            4.0100   -11.2075    -1.8160 C.ar    
  27 C27            4.6339   -11.0021    -3.0339 C.ar    
  28 C28            5.1706    -9.7686    -3.3383 C.ar    
  29 C29           -1.3052    -0.4655    -0.3099 C.3     
  30 C30            1.3732     3.7799    -0.1478 C.3     
  31 H31           -0.8621     2.2234    -0.2505 H       
  32 H32            4.7439     0.9091    -1.0449 H       
  33 H33            4.5543     1.0567     0.7193 H       
  34 H34            6.8035     0.1391     0.0228 H       
  35 H35            5.8846    -0.9659     1.0787 H       
  36 H36            4.8872    -2.9592    -2.0546 H       
  37 H37            4.6201    -3.0103    -0.2921 H       
  38 H38            2.6424    -2.0344    -1.3533 H       
  39 H39            3.6511    -0.8576    -2.2295 H       
  40 H40            8.1920    -1.7372    -4.1810 H       
  41 H41            8.2777    -3.6446    -5.7315 H       
  42 H42            6.1032    -4.2391    -1.3849 H       
  43 H43            4.3947    -8.1426    -0.4588 H       
  44 H44            3.4365   -10.3481     0.0562 H       
  45 H45            3.5879   -12.1744    -1.5848 H       
  46 H46            4.6968   -11.8084    -3.7497 H       
  47 H47            5.6569    -9.6096    -4.2894 H       
  48 H48           -1.5917    -0.6214    -1.3499 H       
  49 H49           -1.2094    -1.4298     0.1891 H       
  50 H50           -2.0685     0.1290     0.1921 H       
  51 H51            1.4262     4.1615    -1.1675 H       
  52 H52            0.4907     4.1858     0.3466 H       
  53 H53            2.2667     4.0802     0.3994 H       
@<TRIPOS>BOND
   1    1    2 ar
   2    1    6 ar
   3    1   31 1
   4    2    3 ar
   5    2   29 1
   6    3    4 ar
   7    4    5 ar
   8    4    7 1
   9    5    6 ar
  10    6   30 1
  11    7    8 1
  12    7   12 1
  13    8    9 1
  14    8   32 1
  15    8   33 1
  16    9   10 1
  17    9   34 1
  18    9   35 1
  19   10   11 1
  20   10   13 am
  21   11   12 1
  22   11   36 1
  23   11   37 1
  24   12   38 1
  25   12   39 1
  26   13   14 1
  27   13   15 2
  28   14   16 ar
  29   14   20 ar
  30   16   17 ar
  31   16   40 1
  32   17   18 ar
  33   17   41 1
  34   18   19 ar
  35   19   20 ar
  36   19   21 1
  37   20   42 1
  38   21   22 3
  39   22   23 1
  40   23   24 ar
  41   23   28 ar
  42   24   25 ar
  43   24   43 1
  44   25   26 ar
  45   25   44 1
  46   26   27 ar
  47   26   45 1
  48   27   28 ar
  49   27   46 1
  50   28   47 1
  51   29   48 1
  52   29   49 1
  53   29   50 1
  54   30   51 1
  55   30   52 1
  56   30   53 1

#	End of record

