#	Name: ASD01915663
#	Creating user name:	WinNT
#	Creation time:	15. 06. 2019 20:05

#	Modifying user name:	WinNT
#	Modification time:	15. 06. 2019 20:05

#	Program:	/corina/corina34_cracker 3.40 0067  02.08.2006

@<TRIPOS>MOLECULE
ASD01915663
  42   45    0    0    0
SMALL
NO_CHARGES


@<TRIPOS>ATOM
   1 C1            -0.0166     1.3736     0.0096 C.2     
   2 N2             0.0021    -0.0041     0.0020 N.pl3   
   3 C3            -1.2451    -0.7770     0.0110 C.3     
   4 C4            -2.3226     0.0138     0.7509 C.3     
   5 N5            -2.3981     1.4042     0.3186 N.am    
   6 C6            -1.2846     2.1200     0.0203 C.2     
   7 C7             1.2836     1.7913    -0.0006 C.2     
   8 C8             2.0431     0.6135    -0.0147 C.2     
   9 N9             1.2130    -0.4035    -0.0125 N.2     
  10 C10            3.5477     0.5294    -0.0304 C.3     
  11 O11            4.0985     1.8479    -0.0286 O.3     
  12 C12            5.4537     1.9505    -0.0417 C.ar    
  13 O13           -1.3315     3.3121    -0.2164 O.2     
  14 C14            6.2363     0.8035    -0.0560 C.ar    
  15 C15            6.0530     3.1985    -0.0466 C.ar    
  16 C16            7.4450     3.2991    -0.0600 C.ar    
  17 C17            8.2235     2.1401    -0.0685 C.ar    
  18 C18            7.6152     0.9014    -0.0689 C.ar    
  19 C19           -3.7104     2.0442     0.1981 C.3     
  20 C20           -4.0828     2.6987     1.5300 C.3     
  21 C21           -5.4751     3.3225     1.6457 C.3     
  22 C22           -4.2401     4.2204     1.5497 C.3     
  23 C23            8.0725     4.5863    -0.0656 C.1     
  24 N24            8.5702     5.6075    -0.0700 N.1     
  25 H25           -1.5673    -0.9600    -1.0141 H       
  26 H26           -1.0801    -1.7283     0.5167 H       
  27 H27           -3.2884    -0.4612     0.5784 H       
  28 H28           -2.1064    -0.0112     1.8189 H       
  29 H29            1.6474     2.8081     0.0018 H       
  30 H30            3.8907    -0.0089     0.8532 H       
  31 H31            3.8728     0.0010    -0.9266 H       
  32 H32            5.7660    -0.1687    -0.0566 H       
  33 H33            5.4453     4.0912    -0.0403 H       
  34 H34            9.3010     2.2129    -0.0793 H       
  35 H35            8.2184     0.0055    -0.0754 H       
  36 H36           -3.6739     2.8040    -0.5825 H       
  37 H37           -4.4581     1.2941    -0.0597 H       
  38 H38           -3.6687     2.2236     2.4193 H       
  39 H39           -6.1258     3.2665     0.7730 H       
  40 H40           -5.9768     3.2581     2.6112 H       
  41 H41           -3.9292     4.7469     2.4521 H       
  42 H42           -4.0782     4.7553     0.6139 H       
@<TRIPOS>BOND
   1    1    2 1
   2    1    7 2
   3    1    6 1
   4    2    3 1
   5    2    9 1
   6    3    4 1
   7    3   25 1
   8    3   26 1
   9    4    5 1
  10    4   27 1
  11    4   28 1
  12    5    6 am
  13    5   19 1
  14    6   13 2
  15    7    8 1
  16    7   29 1
  17    8    9 2
  18    8   10 1
  19   10   11 1
  20   10   30 1
  21   10   31 1
  22   11   12 1
  23   12   14 ar
  24   12   15 ar
  25   14   18 ar
  26   14   32 1
  27   15   16 ar
  28   15   33 1
  29   16   17 ar
  30   16   23 1
  31   17   18 ar
  32   17   34 1
  33   18   35 1
  34   19   20 1
  35   19   36 1
  36   19   37 1
  37   20   21 1
  38   20   22 1
  39   20   38 1
  40   21   22 1
  41   21   39 1
  42   21   40 1
  43   22   41 1
  44   22   42 1
  45   23   24 3

#	End of record

