#	Name: ASD00122070
#	Creating user name:	WinNT
#	Creation time:	15. 06. 2019 18:31

#	Modifying user name:	WinNT
#	Modification time:	15. 06. 2019 18:31

#	Program:	/corina/corina34_cracker 3.40 0067  02.08.2006

@<TRIPOS>MOLECULE
ASD00122070
  30   33    0    0    0
SMALL
NO_CHARGES


@<TRIPOS>ATOM
   1 C1            -0.0167     1.3782     0.0096 C.ar    
   2 C2             0.0021    -0.0041     0.0020 C.ar    
   3 C3             1.1693     2.0886     0.0021 C.ar    
   4 C4             2.3791     1.4198    -0.0134 C.ar    
   5 C5             2.4055     0.0346    -0.0216 C.ar    
   6 C6             1.2108    -0.6810    -0.0128 C.ar    
   7 C7             1.1433     3.5953     0.0104 C.3     
   8 S8             1.1491     4.1895     1.7201 S.3     
   9 C9             1.1163     5.9287     1.4397 C.ar    
  10 C10            1.1108     6.8312     2.5177 C.ar    
  11 C11            1.0842     8.2063     2.2311 C.ar    
  12 N12            1.0649     8.6016     0.9621 N.ar    
  13 C13            1.0706     7.7201    -0.0157 C.ar    
  14 N14            1.1016     6.4186     0.2034 N.ar    
  15 N15            1.1262     6.7045     3.8661 N.2     
  16 C16            1.1111     7.8857     4.4124 C.2     
  17 N17            1.0850     8.8458     3.4450 N.pl3   
  18 O18            3.4443    -0.8508    -0.0375 O.3     
  19 C19            2.8816    -2.1111     0.3727 C.3     
  20 O20            1.5010    -2.0148    -0.0241 O.3     
  21 H21           -0.9599     1.9042     0.0169 H       
  22 H22           -0.9259    -0.5565     0.0080 H       
  23 H23            3.3040     1.9774    -0.0196 H       
  24 H24            2.0219     3.9768    -0.5098 H       
  25 H25            0.2423     3.9459    -0.4930 H       
  26 H26            1.0541     8.0751    -1.0356 H       
  27 H27            1.1174     8.0771     5.4753 H       
  28 H28            1.0703     9.8050     3.5884 H       
  29 H29            3.3723    -2.9359    -0.1440 H       
  30 H30            2.9615    -2.2327     1.4529 H       
@<TRIPOS>BOND
   1    1    2 ar
   2    1    3 ar
   3    1   21 1
   4    2    6 ar
   5    2   22 1
   6    3    4 ar
   7    3    7 1
   8    4    5 ar
   9    4   23 1
  10    5    6 ar
  11    5   18 1
  12    6   20 1
  13    7    8 1
  14    7   24 1
  15    7   25 1
  16    8    9 1
  17    9   10 ar
  18    9   14 ar
  19   10   11 ar
  20   10   15 1
  21   11   12 ar
  22   11   17 1
  23   12   13 ar
  24   13   14 ar
  25   13   26 1
  26   15   16 2
  27   16   17 1
  28   16   27 1
  29   17   28 1
  30   18   19 1
  31   19   20 1
  32   19   29 1
  33   19   30 1

#	End of record

