#	Name: ASD01915430
#	Creating user name:	WinNT
#	Creation time:	15. 06. 2019 20:05

#	Modifying user name:	WinNT
#	Modification time:	15. 06. 2019 20:05

#	Program:	/corina/corina34_cracker 3.40 0067  02.08.2006

@<TRIPOS>MOLECULE
ASD01915430
  46   50    0    0    0
SMALL
NO_CHARGES


@<TRIPOS>ATOM
   1 N1            -0.0137     1.3955    -0.0648 N.pl3   
   2 N2             0.0073    -0.0015    -0.1162 N.2     
   3 C3             1.2406    -0.4349    -0.0121 C.2     
   4 C4             2.1109     0.7368     0.1180 C.ar    
   5 C5             1.2672     1.8629     0.0785 C.ar    
   6 C6             1.8088     3.1425     0.1802 C.ar    
   7 C7             3.4994     0.9010     0.2598 C.ar    
   8 C8             4.0339     2.1922     0.3612 C.ar    
   9 C9             3.1760     3.3127     0.3201 C.ar    
  10 C10            5.4468     2.3749     0.5060 C.1     
  11 C11            1.6751    -1.8523    -0.0234 C.ar    
  12 C12            1.0044    -2.7960     0.7530 C.ar    
  13 C13            1.4134    -4.1139     0.7385 C.ar    
  14 C14            2.4868    -4.4992    -0.0445 C.ar    
  15 C15            3.1565    -3.5671    -0.8167 C.ar    
  16 C16            2.7525    -2.2475    -0.8149 C.ar    
  17 C17            4.3897    -0.2802     0.3021 C.ar    
  18 C18            5.3218    -0.4919    -0.7145 C.ar    
  19 C19            6.1493    -1.5949    -0.6689 C.ar    
  20 C20            6.0563    -2.4902     0.3819 C.ar    
  21 C21            5.1342    -2.2860     1.3930 C.ar    
  22 C22            4.3046    -1.1841     1.3619 C.ar    
  23 C23            3.7414     4.6781     0.4273 C.ar    
  24 C24            3.3857     5.6579    -0.4990 C.ar    
  25 C25            3.9152     6.9278    -0.3937 C.ar    
  26 C26            4.7973     7.2298     0.6283 C.ar    
  27 C27            5.1540     6.2620     1.5502 C.ar    
  28 C28            4.6270     4.9901     1.4584 C.ar    
  29 N29            6.5676     2.5198     0.6210 N.1     
  30 H30           -0.8090     1.9474    -0.1252 H       
  31 H31            1.1598     4.0052     0.1493 H       
  32 H32            0.1665    -2.4963     1.3649 H       
  33 H33            0.8948    -4.8459     1.3398 H       
  34 H34            2.8034    -5.5317    -0.0527 H       
  35 H35            3.9940    -3.8735    -1.4258 H       
  36 H36            3.2731    -1.5215    -1.4219 H       
  37 H37            5.3951     0.2060    -1.5354 H       
  38 H38            6.8709    -1.7601    -1.4552 H       
  39 H39            6.7061    -3.3523     0.4129 H       
  40 H40            5.0663    -2.9887     2.2104 H       
  41 H41            3.5883    -1.0234     2.1540 H       
  42 H42            2.6974     5.4231    -1.2974 H       
  43 H43            3.6407     7.6873    -1.1107 H       
  44 H44            5.2095     8.2250     0.7064 H       
  45 H45            5.8434     6.5036     2.3457 H       
  46 H46            4.9030     4.2365     2.1811 H       
@<TRIPOS>BOND
   1    1    2 1
   2    1    5 1
   3    1   30 1
   4    2    3 2
   5    3    4 1
   6    3   11 1
   7    4    7 ar
   8    4    5 ar
   9    5    6 ar
  10    6    9 ar
  11    6   31 1
  12    7    8 ar
  13    7   17 1
  14    8    9 ar
  15    8   10 1
  16    9   23 1
  17   10   29 3
  18   11   12 ar
  19   11   16 ar
  20   12   13 ar
  21   12   32 1
  22   13   14 ar
  23   13   33 1
  24   14   15 ar
  25   14   34 1
  26   15   16 ar
  27   15   35 1
  28   16   36 1
  29   17   18 ar
  30   17   22 ar
  31   18   19 ar
  32   18   37 1
  33   19   20 ar
  34   19   38 1
  35   20   21 ar
  36   20   39 1
  37   21   22 ar
  38   21   40 1
  39   22   41 1
  40   23   24 ar
  41   23   28 ar
  42   24   25 ar
  43   24   42 1
  44   25   26 ar
  45   25   43 1
  46   26   27 ar
  47   26   44 1
  48   27   28 ar
  49   27   45 1
  50   28   46 1

#	End of record

