#	Name: ASD01884773
#	Creating user name:	WinNT
#	Creation time:	15. 06. 2019 19:48

#	Modifying user name:	WinNT
#	Modification time:	15. 06. 2019 19:48

#	Program:	/corina/corina34_cracker 3.40 0067  02.08.2006

@<TRIPOS>MOLECULE
ASD01884773
  43   46    0    0    0
SMALL
NO_CHARGES


@<TRIPOS>ATOM
   1 O1            -0.0162     1.3431     0.0094 O.3     
   2 C2             0.0021    -0.0041     0.0020 C.2     
   3 O3             1.0623    -0.5971    -0.0113 O.2     
   4 C4            -1.2659    -0.7593     0.0101 C.ar    
   5 C5            -2.4845    -0.0808     0.0196 C.ar    
   6 C6            -3.6742    -0.7997     0.0272 C.ar    
   7 C7            -3.6459    -2.1944     0.0253 C.ar    
   8 C8            -2.4395    -2.8650     0.0163 C.ar    
   9 C9            -1.2497    -2.1590     0.0024 C.ar    
  10 F10           -0.0719    -2.8206    -0.0129 F       
  11 C11           -4.9741    -0.0837     0.0378 C.ar    
  12 C12           -5.0037     1.3098     0.0344 C.ar    
  13 C13           -6.2127     1.9777     0.0442 C.ar    
  14 C14           -7.3982     1.2700     0.0571 C.ar    
  15 C15           -7.3808    -0.1244     0.0606 C.ar    
  16 C16           -6.1657    -0.8023     0.0454 C.ar    
  17 C17           -8.6552    -0.8835     0.0754 C.ar    
  18 N18           -9.8017    -0.2199     0.0796 N.ar    
  19 C19          -10.9618    -0.8722     0.0928 C.ar    
  20 C20          -10.9526    -2.2711     0.1021 C.ar    
  21 C21           -9.7321    -2.9223     0.0972 C.ar    
  22 N22           -8.6176    -2.2092     0.0785 N.ar    
  23 C23           -9.6725    -4.4281     0.1074 C.3     
  24 F24           -9.6643    -4.9034    -1.2084 F       
  25 F25           -8.5076    -4.8443     0.7608 F       
  26 F26          -10.7903    -4.9345     0.7792 F       
  27 C27          -12.2431    -0.1282     0.0980 C.2     
  28 C28          -12.4252     1.3238    -0.0178 C.2     
  29 C29          -13.7504     1.5362     0.0353 C.2     
  30 O30          -14.3771     0.3575     0.1711 O.3     
  31 C31          -13.4944    -0.6493     0.2050 C.2     
  32 H32            0.8393     1.7937     0.0037 H       
  33 H33           -2.5037     0.9990     0.0214 H       
  34 H34           -4.5711    -2.7515     0.0312 H       
  35 H35           -2.4243    -3.9449     0.0152 H       
  36 H36           -4.0794     1.8685     0.0243 H       
  37 H37           -6.2308     3.0575     0.0422 H       
  38 H38           -8.3407     1.7974     0.0648 H       
  39 H39           -6.1474    -1.8822     0.0439 H       
  40 H40          -11.8769    -2.8296     0.1132 H       
  41 H41          -11.6512     2.0696    -0.1235 H       
  42 H42          -14.2336     2.5003    -0.0217 H       
  43 H43          -13.7356    -1.6974     0.3035 H       
@<TRIPOS>BOND
   1    1    2 1
   2    1   32 1
   3    2    3 2
   4    2    4 1
   5    4    9 ar
   6    4    5 ar
   7    5    6 ar
   8    5   33 1
   9    6    7 ar
  10    6   11 1
  11    7    8 ar
  12    7   34 1
  13    8    9 ar
  14    8   35 1
  15    9   10 1
  16   11   16 ar
  17   11   12 ar
  18   12   13 ar
  19   12   36 1
  20   13   14 ar
  21   13   37 1
  22   14   15 ar
  23   14   38 1
  24   15   16 ar
  25   15   17 1
  26   16   39 1
  27   17   22 ar
  28   17   18 ar
  29   18   19 ar
  30   19   20 ar
  31   19   27 1
  32   20   21 ar
  33   20   40 1
  34   21   22 ar
  35   21   23 1
  36   23   24 1
  37   23   25 1
  38   23   26 1
  39   27   31 2
  40   27   28 1
  41   28   29 2
  42   28   41 1
  43   29   30 1
  44   29   42 1
  45   30   31 1
  46   31   43 1

#	End of record

