#	Name: ASD01915794
#	Creating user name:	WinNT
#	Creation time:	15. 06. 2019 20:06

#	Modifying user name:	WinNT
#	Modification time:	15. 06. 2019 20:06

#	Program:	/corina/corina34_cracker 3.40 0067  02.08.2006

@<TRIPOS>MOLECULE
ASD01915794
  43   46    0    0    0
SMALL
NO_CHARGES


@<TRIPOS>ATOM
   1 C1            -0.0166     1.3728     0.0096 C.2     
   2 N2             0.0021    -0.0041     0.0020 N.pl3   
   3 C3            -1.2433    -0.7807    -0.0179 C.3     
   4 C4            -2.3411     0.0068     0.6954 C.3     
   5 N5            -2.4042     1.3989     0.2636 N.am    
   6 C6            -1.2811     2.1228     0.0393 C.2     
   7 C7             1.2846     1.7904    -0.0006 C.2     
   8 C8             2.0437     0.6125    -0.0024 C.2     
   9 N9             1.2133    -0.4042     0.0045 N.2     
  10 C10            3.5483     0.5278    -0.0114 C.3     
  11 O11            4.0996     1.8461    -0.0181 O.3     
  12 C12            5.4547     1.9482    -0.0267 C.ar    
  13 O13           -1.3168     3.3268    -0.1288 O.2     
  14 C14            6.0574     3.1977    -0.0335 C.ar    
  15 C15            6.2378     0.8030    -0.0230 C.ar    
  16 C16            7.6151     0.9094    -0.0318 C.ar    
  17 C17            8.2133     2.1559    -0.0443 C.ar    
  18 C18            7.4351     3.2988    -0.0422 C.ar    
  19 C19           -3.6441     1.9957     0.0779 C.ar    
  20 N20           -3.6998     3.2575    -0.3192 N.ar    
  21 N21           -4.7407     1.2869     0.2971 N.ar    
  22 C22           -5.9410     1.8216     0.1306 C.ar    
  23 C23           -6.0429     3.1392    -0.2781 C.ar    
  24 C24           -4.8691     3.8574    -0.5060 C.ar    
  25 Cl25          -7.5960     3.8796    -0.5092 Cl      
  26 O26           -4.9216     5.1511    -0.9070 O.3     
  27 C27           -3.6744     5.8158    -1.1187 C.3     
  28 H28           -1.5404    -0.9656    -1.0502 H       
  29 H29           -1.0875    -1.7313     0.4922 H       
  30 H30           -3.3017    -0.4679     0.4954 H       
  31 H31           -2.1536    -0.0208     1.7688 H       
  32 H32            1.6488     2.8072    -0.0066 H       
  33 H33            3.8876    -0.0035     0.8778 H       
  34 H34            3.8767    -0.0079    -0.9021 H       
  35 H35            5.4500     4.0907    -0.0322 H       
  36 H36            5.7710    -0.1709    -0.0128 H       
  37 H37            8.2251     0.0182    -0.0285 H       
  38 H38            9.2902     2.2370    -0.0511 H       
  39 H39            7.9047     4.2713    -0.0524 H       
  40 H40           -6.8299     1.2356     0.3115 H       
  41 H41           -3.8590     6.8421    -1.4362 H       
  42 H42           -3.1027     5.8198    -0.1907 H       
  43 H43           -3.1103     5.2925    -1.8907 H       
@<TRIPOS>BOND
   1    1    2 1
   2    1    7 2
   3    1    6 1
   4    2    3 1
   5    2    9 1
   6    3    4 1
   7    3   28 1
   8    3   29 1
   9    4    5 1
  10    4   30 1
  11    4   31 1
  12    5    6 am
  13    5   19 1
  14    6   13 2
  15    7    8 1
  16    7   32 1
  17    8    9 2
  18    8   10 1
  19   10   11 1
  20   10   33 1
  21   10   34 1
  22   11   12 1
  23   12   14 ar
  24   12   15 ar
  25   14   18 ar
  26   14   35 1
  27   15   16 ar
  28   15   36 1
  29   16   17 ar
  30   16   37 1
  31   17   18 ar
  32   17   38 1
  33   18   39 1
  34   19   21 ar
  35   19   20 ar
  36   20   24 ar
  37   21   22 ar
  38   22   23 ar
  39   22   40 1
  40   23   24 ar
  41   23   25 1
  42   24   26 1
  43   26   27 1
  44   27   41 1
  45   27   42 1
  46   27   43 1

#	End of record

