#	Name: ASD03730327
#	Creating user name:	WinNT
#	Creation time:	15. 06. 2019 20:44

#	Modifying user name:	WinNT
#	Modification time:	15. 06. 2019 20:44

#	Program:	/corina/corina34_cracker 3.40 0067  02.08.2006

@<TRIPOS>MOLECULE
ASD03730327
  65   70    0    0    0
SMALL
NO_CHARGES


@<TRIPOS>ATOM
   1 O1            -0.4812     1.1401     1.3937 O.3     
   2 C2            -0.4092    -0.2967     1.4530 C.3     
   3 O3             0.6623    -0.6233     0.5484 O.3     
   4 C4             1.4814     0.4694     0.5432 C.ar    
   5 C5             0.7771     1.5538     1.0615 C.ar    
   6 C6             2.7927     0.6286     0.1327 C.ar    
   7 C7             3.4164     1.8688     0.2306 C.ar    
   8 C8             2.6998     2.9468     0.7417 C.ar    
   9 C9             1.3944     2.7895     1.1579 C.ar    
  10 O10            4.6891     2.2332    -0.0976 O.3     
  11 C11            3.6218     4.1357     0.6949 C.3     
  12 C12            4.7544     3.6664    -0.2283 C.3     
  13 N13            3.0554     6.3085     1.1185 N.am    
  14 C14            2.9395     5.3636     0.1642 C.2     
  15 C15            4.1294     4.5192     2.0530 C.ar    
  16 C16            4.8367     3.8432     3.0411 C.ar    
  17 C17            5.1679     4.4995     4.2290 C.ar    
  18 C18            4.7893     5.8142     4.4120 C.ar    
  19 C19            4.0866     6.4834     3.4303 C.ar    
  20 C20            3.7496     5.8432     2.2386 C.ar    
  21 C21            5.2364     2.4350     2.8355 C.2     
  22 O22            4.4046     1.6072     2.5181 O.2     
  23 N23            6.5230     2.0687     2.9998 N.am    
  24 C24            2.5165     7.6652     0.9958 C.3     
  25 C25            1.0871     7.6974     1.5404 C.3     
  26 C26            0.5242     9.1143     1.4123 C.3     
  27 C27           -0.9052     9.1465     1.9569 C.3     
  28 C28           -1.4680    10.5634     1.8287 C.3     
  29 O29            2.3914     5.4817    -0.9114 O.2     
  30 C30            6.8810     0.7190     2.9239 C.ar    
  31 C31            5.9974    -0.2598     3.3576 C.ar    
  32 C32            6.3558    -1.5962     3.2808 C.ar    
  33 C33            7.5965    -1.9531     2.7708 C.ar    
  34 C34            8.4748    -0.9775     2.3396 C.ar    
  35 C35            8.1190     0.3557     2.4091 C.ar    
  36 O36            5.4932    -2.5569     3.7049 O.3     
  37 C37            5.9287    -3.9136     3.5963 C.3     
  38 H38           -0.1709    -0.6268     2.4641 H       
  39 H39           -1.3451    -0.7413     1.1146 H       
  40 H40            3.3362    -0.2151    -0.2661 H       
  41 H41            0.8520     3.6325     1.5600 H       
  42 H42            5.7170     4.0431     0.1174 H       
  43 H43            4.5657     3.9703    -1.2580 H       
  44 H44            5.7173     3.9806     5.0006 H       
  45 H45            5.0444     6.3227     5.3300 H       
  46 H46            3.7955     7.5116     3.5866 H       
  47 H47            7.2007     2.7414     3.1707 H       
  48 H48            3.1380     8.3560     1.5655 H       
  49 H49            2.5123     7.9610    -0.0533 H       
  50 H50            0.4655     7.0066     0.9707 H       
  51 H51            1.0913     7.4016     2.5895 H       
  52 H52            1.1458     9.8051     1.9820 H       
  53 H53            0.5200     9.4101     0.3632 H       
  54 H54           -1.5267     8.4557     1.3872 H       
  55 H55           -0.9010     8.8508     3.0060 H       
  56 H56           -2.4863    10.5864     2.2168 H       
  57 H57           -0.8464    11.2542     2.3985 H       
  58 H58           -1.4722    10.8592     0.7796 H       
  59 H59            5.0326     0.0197     3.7544 H       
  60 H60            7.8759    -2.9946     2.7113 H       
  61 H61            9.4397    -1.2578     1.9435 H       
  62 H62            8.8054     1.1161     2.0670 H       
  63 H63            5.1478    -4.5768     3.9685 H       
  64 H64            6.1356    -4.1463     2.5517 H       
  65 H65            6.8349    -4.0526     4.1859 H       
@<TRIPOS>BOND
   1    1    2 1
   2    1    5 1
   3    2    3 1
   4    2   38 1
   5    2   39 1
   6    3    4 1
   7    4    5 ar
   8    4    6 ar
   9    5    9 ar
  10    6    7 ar
  11    6   40 1
  12    7    8 ar
  13    7   10 1
  14    8    9 ar
  15    8   11 1
  16    9   41 1
  17   10   12 1
  18   11   12 1
  19   11   14 1
  20   11   15 1
  21   12   42 1
  22   12   43 1
  23   13   14 am
  24   13   20 1
  25   13   24 1
  26   14   29 2
  27   15   16 ar
  28   15   20 ar
  29   16   17 ar
  30   16   21 1
  31   17   18 ar
  32   17   44 1
  33   18   19 ar
  34   18   45 1
  35   19   20 ar
  36   19   46 1
  37   21   22 2
  38   21   23 am
  39   23   30 1
  40   23   47 1
  41   24   25 1
  42   24   48 1
  43   24   49 1
  44   25   26 1
  45   25   50 1
  46   25   51 1
  47   26   27 1
  48   26   52 1
  49   26   53 1
  50   27   28 1
  51   27   54 1
  52   27   55 1
  53   28   56 1
  54   28   57 1
  55   28   58 1
  56   30   31 ar
  57   30   35 ar
  58   31   32 ar
  59   31   59 1
  60   32   33 ar
  61   32   36 1
  62   33   34 ar
  63   33   60 1
  64   34   35 ar
  65   34   61 1
  66   35   62 1
  67   36   37 1
  68   37   63 1
  69   37   64 1
  70   37   65 1

#	End of record

