#	Name: ASD08150557
#	Creating user name:	WinNT
#	Creation time:	15. 06. 2019 21:16

#	Modifying user name:	WinNT
#	Modification time:	15. 06. 2019 21:16

#	Program:	/corina/corina34_cracker 3.40 0067  02.08.2006

@<TRIPOS>MOLECULE
ASD08150557
  49   54    0    0    0
SMALL
NO_CHARGES


@<TRIPOS>ATOM
   1 N1             0.8859     2.9207    -1.5078 N.am    
   2 C2             1.3147     2.2988    -2.6233 C.2     
   3 C3             2.5243     1.5749    -2.6289 C.2     
   4 C4             3.2775     1.4948    -1.5026 C.2     
   5 C5             2.8297     2.1481    -0.3273 C.ar    
   6 C6             3.5732     2.0968     0.8674 C.ar    
   7 N7             3.1578     2.7004     1.9502 N.ar    
   8 C8             2.0120     3.3975     1.9885 C.ar    
   9 C9             1.2001     3.5030     0.8325 C.ar    
  10 C10            1.6209     2.8604    -0.3555 C.ar    
  11 C11           -0.3677     4.8439     2.0677 C.ar    
  12 C12            0.4406     4.7348     3.2076 C.ar    
  13 C13            1.6034     4.0302     3.1740 C.ar    
  14 O14            0.6473     2.3627    -3.6417 O.2     
  15 C15           -0.3167     3.6380    -1.5295 C.ar    
  16 C16           -0.3108     4.9964    -1.8170 C.ar    
  17 C17           -1.4979     5.7021    -1.8378 C.ar    
  18 C18           -2.6934     5.0557    -1.5723 C.ar    
  19 C19           -2.7014     3.7007    -1.2853 C.ar    
  20 C20           -1.5175     2.9904    -1.2691 C.ar    
  21 C21            0.0075     4.2315     0.8832 C.ar    
  22 C22           -1.6320     5.6179     2.1304 C.ar    
  23 C23           -2.7593     5.1902     1.4243 C.ar    
  24 F24           -3.8534     5.7478    -1.5927 F       
  25 C25           -1.4921     7.1765    -2.1492 C.3     
  26 N26           -3.8891     5.8606     1.4664 N.ar    
  27 C27           -4.0172     6.9731     2.1783 C.ar    
  28 C28           -2.9243     7.4676     2.9174 C.ar    
  29 C29           -1.7121     6.7778     2.8991 C.ar    
  30 N30           -5.0645     7.8391     2.3841 N.pl3   
  31 C31           -4.6777     8.8535     3.2184 C.2     
  32 C32           -3.3950     8.6876     3.5767 C.2     
  33 H33            2.8525     1.0823    -3.5322 H       
  34 H34            4.2046     0.9407    -1.5019 H       
  35 H35            4.5034     1.5485     0.8898 H       
  36 H36            0.1361     5.2169     4.1248 H       
  37 H37            2.2143     3.9567     4.0616 H       
  38 H38            0.6214     5.5010    -2.0238 H       
  39 H39           -3.6349     3.1984    -1.0784 H       
  40 H40           -1.5242     1.9339    -1.0452 H       
  41 H41           -0.6160     4.3162     0.0055 H       
  42 H42           -2.7009     4.2897     0.8309 H       
  43 H43           -1.5984     7.3212    -3.2243 H       
  44 H44           -2.3219     7.6600    -1.6337 H       
  45 H45           -0.5517     7.6148    -1.8149 H       
  46 H46           -0.8596     7.1358     3.4572 H       
  47 H47           -5.9480     7.7455     1.9949 H       
  48 H48           -5.3110     9.6671     3.5400 H       
  49 H49           -2.8202     9.3306     4.2266 H       
@<TRIPOS>BOND
   1    1    2 am
   2    1   10 1
   3    1   15 1
   4    2    3 1
   5    2   14 2
   6    3    4 2
   7    3   33 1
   8    4    5 1
   9    4   34 1
  10    5    6 ar
  11    5   10 ar
  12    6    7 ar
  13    6   35 1
  14    7    8 ar
  15    8    9 ar
  16    8   13 ar
  17    9   10 ar
  18    9   21 ar
  19   11   12 ar
  20   11   22 1
  21   11   21 ar
  22   12   13 ar
  23   12   36 1
  24   13   37 1
  25   15   16 ar
  26   15   20 ar
  27   16   17 ar
  28   16   38 1
  29   17   18 ar
  30   17   25 1
  31   18   19 ar
  32   18   24 1
  33   19   20 ar
  34   19   39 1
  35   20   40 1
  36   21   41 1
  37   22   23 ar
  38   22   29 ar
  39   23   26 ar
  40   23   42 1
  41   25   43 1
  42   25   44 1
  43   25   45 1
  44   26   27 ar
  45   27   28 ar
  46   27   30 1
  47   28   29 ar
  48   28   32 1
  49   29   46 1
  50   30   31 1
  51   30   47 1
  52   31   32 2
  53   31   48 1
  54   32   49 1

#	End of record

