#	Name: ASD07301384
#	Creating user name:	WinNT
#	Creation time:	15. 06. 2019 21:11

#	Modifying user name:	WinNT
#	Modification time:	15. 06. 2019 21:11

#	Program:	/corina/corina34_cracker 3.40 0067  02.08.2006

@<TRIPOS>MOLECULE
ASD07301384
  40   41    0    0    0
SMALL
NO_CHARGES


@<TRIPOS>ATOM
   1 C1            -0.0178     1.4647     0.0101 C.2     
   2 C2             0.0021    -0.0041     0.0020 C.2     
   3 C3             1.2768    -0.6367    -0.0136 C.2     
   4 C4             2.3782     0.1590    -0.0198 C.2     
   5 N5             2.2577     1.5097    -0.0109 N.pl3   
   6 N6             1.1284     2.1156     0.0026 N.2     
   7 C7            -1.2985     2.1986     0.0202 C.2     
   8 O8            -2.3495     1.5873     0.0219 O.2     
   9 N9            -1.3028     3.5463     0.0275 N.am    
  10 O10           -1.0317    -0.6549     0.0088 O.2     
  11 C11           -2.5739     4.2747     0.0376 C.3     
  12 O12            1.3887    -1.9916    -0.0215 O.3     
  13 C13            2.7110    -2.5332    -0.0370 C.3     
  14 O14           -0.0788     4.2583     0.0256 O.3     
  15 C15            0.4174     4.5576    -1.2807 C.3     
  16 C16            3.4250     2.2806    -0.0170 C.ar    
  17 C17            3.6361     3.2376     0.9748 C.ar    
  18 C18            4.7947     3.9976     0.9633 C.ar    
  19 C19            5.7373     3.8066    -0.0296 C.ar    
  20 C20            5.5287     2.8575    -1.0137 C.ar    
  21 C21            4.3792     2.0912    -1.0071 C.ar    
  22 O22            2.7080     3.4248     1.9497 O.3     
  23 C23            2.9917     4.4226     2.9325 C.3     
  24 F24            4.1772     4.0961     3.5997 F       
  25 F25            3.1358     5.6656     2.3070 F       
  26 H26            3.3607    -0.2893    -0.0316 H       
  27 H27           -2.8842     4.4498     1.0677 H       
  28 H28           -2.4490     5.2303    -0.4717 H       
  29 H29           -3.3341     3.6860    -0.4759 H       
  30 H30            2.6577    -3.6219    -0.0420 H       
  31 H31            3.2334    -2.1910    -0.9304 H       
  32 H32            3.2506    -2.2000     0.8494 H       
  33 H33            0.5842     3.6295    -1.8274 H       
  34 H34           -0.3107     5.1681    -1.8148 H       
  35 H35            1.3571     5.1034    -1.1961 H       
  36 H36            4.9612     4.7397     1.7301 H       
  37 H37            6.6393     4.4005    -0.0370 H       
  38 H38            6.2682     2.7125    -1.7873 H       
  39 H39            4.2210     1.3480    -1.7746 H       
  40 H40            2.1722     4.4695     3.6497 H       
@<TRIPOS>BOND
   1    1    2 1
   2    1    6 2
   3    1    7 1
   4    2    3 1
   5    2   10 2
   6    3    4 2
   7    3   12 1
   8    4    5 1
   9    4   26 1
  10    5    6 1
  11    5   16 1
  12    7    8 2
  13    7    9 am
  14    9   11 1
  15    9   14 1
  16   11   27 1
  17   11   28 1
  18   11   29 1
  19   12   13 1
  20   13   30 1
  21   13   31 1
  22   13   32 1
  23   14   15 1
  24   15   33 1
  25   15   34 1
  26   15   35 1
  27   16   17 ar
  28   16   21 ar
  29   17   18 ar
  30   17   22 1
  31   18   19 ar
  32   18   36 1
  33   19   20 ar
  34   19   37 1
  35   20   21 ar
  36   20   38 1
  37   21   39 1
  38   22   23 1
  39   23   24 1
  40   23   25 1
  41   23   40 1

#	End of record

