#	Name: ASD01850011
#	Creating user name:	WinNT
#	Creation time:	15. 06. 2019 19:38

#	Modifying user name:	WinNT
#	Modification time:	15. 06. 2019 19:38

#	Program:	/corina/corina34_cracker 3.40 0067  02.08.2006

@<TRIPOS>MOLECULE
ASD01850011
  49   53    0    0    0
SMALL
NO_CHARGES


@<TRIPOS>ATOM
   1 Cl1            0.2472     0.4009     1.1394 Cl      
   2 C2             0.1072     2.1007     0.8160 C.ar    
   3 C3             1.2397     2.8949     0.7853 C.ar    
   4 C4             1.1276     4.2482     0.5278 C.ar    
   5 C5            -0.1158     4.8084     0.3015 C.ar    
   6 C6            -1.2478     4.0154     0.3326 C.ar    
   7 C7            -1.1363     2.6608     0.5834 C.ar    
   8 C8            -0.2374     6.2841     0.0214 C.3     
   9 N9             0.9553     6.7853    -0.6717 N.am    
  10 C10            1.8690     7.2868     0.3772 C.3     
  11 C11            1.1055     7.1069     1.7117 C.3     
  12 N12           -0.3035     7.0609     1.2839 N.am    
  13 C13           -1.5760     7.4085     1.4781 C.2     
  14 O14           -2.0490     7.7749     2.5362 O.2     
  15 C15           -2.3236     7.2799     0.2086 C.ar    
  16 C16           -1.5080     6.5855    -0.7208 C.ar    
  17 C17           -1.9641     6.3471    -1.9967 C.ar    
  18 C18           -3.2259     6.7750    -2.3731 C.ar    
  19 C19           -4.0332     7.4434    -1.4694 C.ar    
  20 C20           -3.5988     7.6915    -0.1782 C.ar    
  21 C21            1.1748     6.7873    -2.0015 C.2     
  22 O22            0.3806     6.2505    -2.7495 O.2     
  23 C23            2.3792     7.4411    -2.5497 C.ar    
  24 C24            2.5244     7.5972    -3.9307 C.ar    
  25 C25            3.6495     8.2076    -4.4382 C.ar    
  26 C26            4.6401     8.6682    -3.5788 C.ar    
  27 C27            4.4997     8.5144    -2.2046 C.ar    
  28 C28            3.3747     7.9106    -1.6888 C.ar    
  29 O29            5.7475     9.2692    -4.0829 O.3     
  30 C30            6.7261     9.7189    -3.1436 C.3     
  31 F31            7.1946     8.6298    -2.4009 F       
  32 F32            7.7932    10.3098    -3.8287 F       
  33 F33            6.1484    10.6573    -2.2816 F       
  34 H34            2.2111     2.4575     0.9628 H       
  35 H35            2.0115     4.8683     0.5038 H       
  36 H36           -2.2190     4.4537     0.1561 H       
  37 H37           -2.0207     2.0414     0.6076 H       
  38 H38            2.7888     6.7021     0.3871 H       
  39 H39            2.0929     8.3404     0.2099 H       
  40 H40            1.3917     6.1736     2.1967 H       
  41 H41            1.2801     7.9555     2.3731 H       
  42 H42           -1.3372     5.8262    -2.7053 H       
  43 H43           -3.5812     6.5868    -3.3755 H       
  44 H44           -5.0183     7.7705    -1.7678 H       
  45 H45           -4.2389     8.2141     0.5172 H       
  46 H46            1.7553     7.2392    -4.5991 H       
  47 H47            3.7626     8.3283    -5.5055 H       
  48 H48            5.2718     8.8733    -1.5401 H       
  49 H49            3.2662     7.7918    -0.6209 H       
@<TRIPOS>BOND
   1    1    2 1
   2    2    3 ar
   3    2    7 ar
   4    3    4 ar
   5    3   34 1
   6    4    5 ar
   7    4   35 1
   8    5    6 ar
   9    5    8 1
  10    6    7 ar
  11    6   36 1
  12    7   37 1
  13    8    9 1
  14    8   12 1
  15    8   16 1
  16    9   10 1
  17    9   21 am
  18   10   11 1
  19   10   38 1
  20   10   39 1
  21   11   12 1
  22   11   40 1
  23   11   41 1
  24   12   13 am
  25   13   14 2
  26   13   15 1
  27   15   16 ar
  28   15   20 ar
  29   16   17 ar
  30   17   18 ar
  31   17   42 1
  32   18   19 ar
  33   18   43 1
  34   19   20 ar
  35   19   44 1
  36   20   45 1
  37   21   22 2
  38   21   23 1
  39   23   24 ar
  40   23   28 ar
  41   24   25 ar
  42   24   46 1
  43   25   26 ar
  44   25   47 1
  45   26   27 ar
  46   26   29 1
  47   27   28 ar
  48   27   48 1
  49   28   49 1
  50   29   30 1
  51   30   31 1
  52   30   32 1
  53   30   33 1

#	End of record

