#	Name: ASD08150478
#	Creating user name:	WinNT
#	Creation time:	15. 06. 2019 21:16

#	Modifying user name:	WinNT
#	Modification time:	15. 06. 2019 21:16

#	Program:	/corina/corina34_cracker 3.40 0067  02.08.2006

@<TRIPOS>MOLECULE
ASD08150478
  71   77    0    0    0
SMALL
NO_CHARGES


@<TRIPOS>ATOM
   1 N1             0.1790     1.6360     0.5215 N.am    
   2 C2             0.1703     0.2953     0.3901 C.2     
   3 C3             1.3688    -0.4449     0.4430 C.2     
   4 C4             2.5551     0.1884     0.6283 C.2     
   5 C5             2.5679     1.5988     0.7664 C.ar    
   6 C6             3.7707     2.3047     0.9600 C.ar    
   7 N7             3.7796     3.6060     1.0871 N.ar    
   8 C8             2.6570     4.3392     1.0410 C.ar    
   9 C9             1.4009     3.7127     0.8491 C.ar    
  10 C10            1.3567     2.3056     0.7090 C.ar    
  11 C11            0.2368     4.4858     0.8035 C.ar    
  12 C12            0.3250     5.8611     0.9471 C.ar    
  13 C13            1.5717     6.4740     1.1362 C.ar    
  14 C14            2.7127     5.7356     1.1827 C.ar    
  15 O15           -0.8886    -0.2859     0.2236 O.2     
  16 C16           -0.9048     6.6886     0.9001 C.ar    
  17 C17           -1.0253     2.3494     0.4599 C.ar    
  18 C18           -1.4879     2.8272    -0.7597 C.ar    
  19 C19           -2.6740     3.5299    -0.8205 C.ar    
  20 C20           -3.4057     3.7594     0.3382 C.ar    
  21 C21           -2.9430     3.2816     1.5576 C.ar    
  22 C22           -1.7593     2.5738     1.6172 C.ar    
  23 N23           -4.6071     4.4716     0.2768 N.3     
  24 C24           -5.7580     3.5598     0.2336 C.3     
  25 C25           -4.6146     5.3937    -0.8667 C.3     
  26 C26           -5.8625     6.2802    -0.7957 C.3     
  27 N27           -7.0458     5.4133    -0.6880 N.am    
  28 C28           -7.0528     4.3711     0.3498 C.3     
  29 C29           -2.1273     6.1170     0.5128 C.ar    
  30 N30           -3.2283     6.8230     0.4626 N.ar    
  31 C31           -3.2441     8.1226     0.7773 C.ar    
  32 C32           -2.0495     8.7725     1.1781 C.ar    
  33 C33           -0.8568     8.0319     1.2440 C.ar    
  34 C34           -4.4367     8.8645     0.7167 C.ar    
  35 C35           -4.4282    10.1862     1.0413 C.ar    
  36 C36           -3.2528    10.8231     1.4347 C.ar    
  37 C37           -2.0782    10.1387     1.5056 C.ar    
  38 C38           -7.9635     4.5279    -3.1182 C.3     
  39 C39           -3.7362     3.5308     2.8145 C.3     
  40 F40           -3.0087     3.0815     3.9218 F       
  41 F41           -3.9849     4.9013     2.9449 F       
  42 F42           -4.9512     2.8410     2.7437 F       
  43 S43           -8.3363     5.6060    -1.7078 S.o2    
  44 O44           -9.4424     5.1008    -0.9726 O.2     
  45 O45           -8.2762     6.9720    -2.0948 O.2     
  46 H46            1.3430    -1.5193     0.3362 H       
  47 H47            3.4758    -0.3745     0.6702 H       
  48 H48            4.7030     1.7614     1.0046 H       
  49 H49           -0.7239     4.0145     0.6572 H       
  50 H50            1.6266     7.5470     1.2465 H       
  51 H51            3.6646     6.2242     1.3294 H       
  52 H52           -0.9190     2.6491    -1.6602 H       
  53 H53           -3.0334     3.9017    -1.7687 H       
  54 H54           -1.4018     2.1984     2.5647 H       
  55 H55           -5.7543     3.0138    -0.7098 H       
  56 H56           -5.6948     2.8549     1.0626 H       
  57 H57           -3.7222     6.0188    -0.8358 H       
  58 H58           -4.6268     4.8222    -1.7948 H       
  59 H59           -5.8023     6.9278     0.0790 H       
  60 H60           -5.9333     6.8859    -1.6991 H       
  61 H61           -7.9106     3.7146     0.2036 H       
  62 H62           -7.1070     4.8352     1.3345 H       
  63 H63           -2.1599     5.0700     0.2498 H       
  64 H64            0.0705     8.4962     1.5454 H       
  65 H65           -5.3567     8.3872     0.4133 H       
  66 H66           -5.3476    10.7508     0.9928 H       
  67 H67           -3.2739    11.8732     1.6862 H       
  68 H68           -1.1736    10.6428     1.8120 H       
  69 H69           -7.8677     3.4984    -2.7732 H       
  70 H70           -8.7703     4.5928    -3.8483 H       
  71 H71           -7.0287     4.8446    -3.5806 H       
@<TRIPOS>BOND
   1    1    2 am
   2    1   10 1
   3    1   17 1
   4    2    3 1
   5    2   15 2
   6    3    4 2
   7    3   46 1
   8    4    5 1
   9    4   47 1
  10    5    6 ar
  11    5   10 ar
  12    6    7 ar
  13    6   48 1
  14    7    8 ar
  15    8    9 ar
  16    8   14 ar
  17    9   10 ar
  18    9   11 ar
  19   11   12 ar
  20   11   49 1
  21   12   13 ar
  22   12   16 1
  23   13   14 ar
  24   13   50 1
  25   14   51 1
  26   16   29 ar
  27   16   33 ar
  28   17   18 ar
  29   17   22 ar
  30   18   19 ar
  31   18   52 1
  32   19   20 ar
  33   19   53 1
  34   20   21 ar
  35   20   23 1
  36   21   22 ar
  37   21   39 1
  38   22   54 1
  39   23   24 1
  40   23   25 1
  41   24   28 1
  42   24   55 1
  43   24   56 1
  44   25   26 1
  45   25   57 1
  46   25   58 1
  47   26   27 1
  48   26   59 1
  49   26   60 1
  50   27   28 1
  51   27   43 am
  52   28   61 1
  53   28   62 1
  54   29   30 ar
  55   29   63 1
  56   30   31 ar
  57   31   32 ar
  58   31   34 ar
  59   32   33 ar
  60   32   37 ar
  61   33   64 1
  62   34   35 ar
  63   34   65 1
  64   35   36 ar
  65   35   66 1
  66   36   37 ar
  67   36   67 1
  68   37   68 1
  69   38   43 1
  70   38   69 1
  71   38   70 1
  72   38   71 1
  73   39   40 1
  74   39   41 1
  75   39   42 1
  76   43   44 2
  77   43   45 2

#	End of record

