#	Name: ASD01120354
#	Creating user name:	WinNT
#	Creation time:	15. 06. 2019 18:59

#	Modifying user name:	WinNT
#	Modification time:	15. 06. 2019 18:59

#	Program:	/corina/corina34_cracker 3.40 0067  02.08.2006

@<TRIPOS>MOLECULE
ASD01120354
  33   34    0    0    0
SMALL
NO_CHARGES


@<TRIPOS>ATOM
   1 C1            -0.0168     1.3848     0.0097 C.ar    
   2 C2             0.0021    -0.0041     0.0020 C.ar    
   3 C3             1.1961    -0.6899    -0.0126 C.ar    
   4 C4             2.3976     0.0127    -0.0203 C.ar    
   5 C5             2.3758     1.4216    -0.0130 C.ar    
   6 C6             1.1480     2.0958     0.0024 C.ar    
   7 N7             3.7156    -0.3779    -0.0353 N.pl3   
   8 C8             4.5141     0.7500    -0.0375 C.2     
   9 C9             3.7232     1.8556    -0.0241 C.2     
  10 C10            4.1959     3.2865    -0.0217 C.3     
  11 C11            4.3422     3.7778    -1.4632 C.3     
  12 C12            4.8150     5.2087    -1.4607 C.2     
  13 O13            5.0145     5.8517    -2.6220 O.3     
  14 O14            5.0145     5.7773    -0.4134 O.2     
  15 C15            5.9830     0.7536    -0.0521 C.2     
  16 O16            6.5882     1.8080    -0.0523 O.2     
  17 O17            6.6600    -0.4125    -0.0652 O.3     
  18 C18            8.1098    -0.3329    -0.0791 C.3     
  19 N19            1.2019    -2.1701    -0.0196 N.pl3   
  20 O20            0.1495    -2.7832    -0.0125 O.2     
  21 O21            2.2590    -2.7750    -0.0325 O.2     
  22 H22           -0.9621     1.9069     0.0169 H       
  23 H23           -0.9289    -0.5515     0.0079 H       
  24 H24            1.1233     3.1755     0.0077 H       
  25 H25            4.0329    -1.2946    -0.0427 H       
  26 H26            3.4698     3.9082     0.5022 H       
  27 H27            5.1598     3.3498     0.4834 H       
  28 H28            5.0684     3.1562    -1.9870 H       
  29 H29            3.3784     3.7145    -1.9682 H       
  30 H30            5.3179     6.7684    -2.5698 H       
  31 H31            8.4356     0.2050    -0.9694 H       
  32 H32            8.4532     0.1953     0.8104 H       
  33 H33            8.5288    -1.3390    -0.0887 H       
@<TRIPOS>BOND
   1    1    2 ar
   2    1    6 ar
   3    1   22 1
   4    2    3 ar
   5    2   23 1
   6    3   19 1
   7    3    4 ar
   8    4    5 ar
   9    4    7 1
  10    5    6 ar
  11    5    9 1
  12    6   24 1
  13    7    8 1
  14    7   25 1
  15    8    9 2
  16    8   15 1
  17    9   10 1
  18   10   11 1
  19   10   26 1
  20   10   27 1
  21   11   12 1
  22   11   28 1
  23   11   29 1
  24   12   13 1
  25   12   14 2
  26   13   30 1
  27   15   16 2
  28   15   17 1
  29   17   18 1
  30   18   31 1
  31   18   32 1
  32   18   33 1
  33   19   20 2
  34   19   21 2

#	End of record

