#	Name: ASD00170526
#	Creating user name:	WinNT
#	Creation time:	15. 06. 2019 18:32

#	Modifying user name:	WinNT
#	Modification time:	15. 06. 2019 18:32

#	Program:	/corina/corina34_cracker 3.40 0067  02.08.2006

@<TRIPOS>MOLECULE
ASD00170526
  51   54    0    0    0
SMALL
NO_CHARGES


@<TRIPOS>ATOM
   1 C1            -0.0858     0.8367     1.4900 C.ar    
   2 C2            -0.0157    -0.5790     0.9784 C.3     
   3 C3            -0.4091    -1.5475     2.0972 C.3     
   4 C4            -0.3949    -2.9785     1.5549 C.3     
   5 N5            -1.3376    -3.0880     0.4343 N.3     
   6 C6            -0.9532    -2.2016    -0.6715 C.3     
   7 C7            -0.9841    -0.7474    -0.1957 C.3     
   8 C8            -1.4534    -4.4795    -0.0222 C.3     
   9 C9            -2.5659    -4.5855    -1.0332 C.2     
  10 C10           -3.8096    -4.9106    -0.7168 C.2     
  11 S11           -4.8323    -4.9367    -2.1421 S.3     
  12 C12           -3.5439    -4.4999    -3.1688 C.2     
  13 C13           -2.3838    -4.3362    -2.4477 C.2     
  14 C14           -1.1032    -3.9604    -3.0465 C.2     
  15 O15           -0.8560    -2.7892    -3.2700 O.2     
  16 C16           -0.1089    -5.0028    -3.3804 C.ar    
  17 C17            1.1561    -4.6408    -3.8470 C.ar    
  18 C18            2.0791    -5.6173    -4.1568 C.ar    
  19 C19            1.7533    -6.9551    -4.0058 C.ar    
  20 C20            0.4998    -7.3203    -3.5432 C.ar    
  21 C21           -0.4295    -6.3526    -3.2247 C.ar    
  22 Cl22           2.9204    -8.1788    -4.3984 Cl      
  23 N23           -3.6509    -4.3285    -4.5341 N.pl3   
  24 C24            1.0466     1.6296     1.4864 C.ar    
  25 C25            0.9828     2.9282     1.9555 C.ar    
  26 C26           -0.2146     3.4344     2.4288 C.ar    
  27 C27           -1.3476     2.6404     2.4322 C.ar    
  28 C28           -1.2839     1.3438     1.9576 C.ar    
  29 Cl29          -0.2953     5.0651     3.0187 Cl      
  30 H30            1.0000    -0.7971     0.6482 H       
  31 H31            0.3022    -1.4627     2.9188 H       
  32 H32           -1.4095    -1.3037     2.4546 H       
  33 H33            0.6090    -3.2265     1.2104 H       
  34 H34           -0.6885    -3.6694     2.3453 H       
  35 H35            0.0534    -2.4532    -1.0055 H       
  36 H36           -1.6523    -2.3281    -1.4982 H       
  37 H37           -1.9936    -0.4909     0.1256 H       
  38 H38           -0.6836    -0.0909    -1.0123 H       
  39 H39           -0.5148    -4.7907    -0.4808 H       
  40 H40           -1.6732    -5.1240     0.8289 H       
  41 H41           -4.1491    -5.1309     0.2845 H       
  42 H42            1.4111    -3.5981    -3.9655 H       
  43 H43            3.0579    -5.3385    -4.5182 H       
  44 H44            0.2514    -8.3650    -3.4275 H       
  45 H45           -1.4064    -6.6386    -2.8638 H       
  46 H46           -4.4867    -4.5284    -4.9839 H       
  47 H47           -2.8903    -4.0081    -5.0437 H       
  48 H48            1.9813     1.2342     1.1172 H       
  49 H49            1.8677     3.5474     1.9529 H       
  50 H50           -2.2826     3.0350     2.8016 H       
  51 H51           -2.1682     0.7239     1.9602 H       
@<TRIPOS>BOND
   1    1    2 1
   2    1   24 ar
   3    1   28 ar
   4    2    3 1
   5    2    7 1
   6    2   30 1
   7    3    4 1
   8    3   31 1
   9    3   32 1
  10    4    5 1
  11    4   33 1
  12    4   34 1
  13    5    6 1
  14    5    8 1
  15    6    7 1
  16    6   35 1
  17    6   36 1
  18    7   37 1
  19    7   38 1
  20    8    9 1
  21    8   39 1
  22    8   40 1
  23    9   10 2
  24    9   13 1
  25   10   11 1
  26   10   41 1
  27   11   12 1
  28   12   13 2
  29   12   23 1
  30   13   14 1
  31   14   15 2
  32   14   16 1
  33   16   17 ar
  34   16   21 ar
  35   17   18 ar
  36   17   42 1
  37   18   19 ar
  38   18   43 1
  39   19   20 ar
  40   19   22 1
  41   20   21 ar
  42   20   44 1
  43   21   45 1
  44   23   46 1
  45   23   47 1
  46   24   25 ar
  47   24   48 1
  48   25   26 ar
  49   25   49 1
  50   26   27 ar
  51   26   29 1
  52   27   28 ar
  53   27   50 1
  54   28   51 1

#	End of record

