#	Name: ASD05380306
#	Creating user name:	WinNT
#	Creation time:	15. 06. 2019 20:59

#	Modifying user name:	WinNT
#	Modification time:	15. 06. 2019 20:59

#	Program:	/corina/corina34_cracker 3.40 0067  02.08.2006

@<TRIPOS>MOLECULE
ASD05380306
  31   32    0    0    0
SMALL
NO_CHARGES


@<TRIPOS>ATOM
   1 C1            -0.0167     1.3782     0.0096 C.ar    
   2 C2             0.0021    -0.0041     0.0020 C.ar    
   3 C3             1.1697     2.0864     0.0021 C.ar    
   4 C4             2.3802     1.4093    -0.0131 C.ar    
   5 C5             2.3963     0.0219    -0.0208 C.ar    
   6 C6             1.2076    -0.6815    -0.0127 C.ar    
   7 C7            -1.3322     2.1133     0.0199 C.3     
   8 O8            -2.3364     1.3737    -0.7335 O.3     
   9 C9            -1.9066     2.1728     1.4484 C.3     
  10 N10           -3.1848     1.4527     1.3423 N.am    
  11 C11           -3.3452     1.0378     0.0783 C.2     
  12 O12           -4.3184     0.4142    -0.2965 O.2     
  13 C13           -0.9723     1.4670     2.4332 C.3     
  14 C14           -1.5014     1.6480     3.8574 C.3     
  15 O15            3.5484     2.1036    -0.0210 O.3     
  16 C16            4.7565     1.3405    -0.0367 C.3     
  17 H17           -0.9263    -0.5558     0.0080 H       
  18 H18            1.1545     3.1663     0.0077 H       
  19 H19            3.3375    -0.5076    -0.0330 H       
  20 H20            1.2196    -1.7614    -0.0187 H       
  21 H21           -1.2112     3.1169    -0.3877 H       
  22 H22           -2.0735     3.2065     1.7512 H       
  23 H23           -3.8096     1.3025     2.0689 H       
  24 H24           -0.9282     0.4044     2.1943 H       
  25 H25            0.0262     1.8978     2.3591 H       
  26 H26           -1.5455     2.7106     4.0963 H       
  27 H27           -2.5000     1.2172     3.9314 H       
  28 H28           -0.8358     1.1452     4.5589 H       
  29 H29            4.7980     0.7076     0.8497 H       
  30 H30            4.7806     0.7166    -0.9301 H       
  31 H31            5.6125     2.0154    -0.0416 H       
@<TRIPOS>BOND
   1    1    2 ar
   2    1    3 ar
   3    1    7 1
   4    2    6 ar
   5    2   17 1
   6    3    4 ar
   7    3   18 1
   8    4    5 ar
   9    4   15 1
  10    5    6 ar
  11    5   19 1
  12    6   20 1
  13    7    8 1
  14    7    9 1
  15    7   21 1
  16    8   11 1
  17    9   10 1
  18    9   13 1
  19    9   22 1
  20   10   11 am
  21   10   23 1
  22   11   12 2
  23   13   14 1
  24   13   24 1
  25   13   25 1
  26   14   26 1
  27   14   27 1
  28   14   28 1
  29   15   16 1
  30   16   29 1
  31   16   30 1
  32   16   31 1

#	End of record

