#	Name: ASD05790057
#	Creating user name:	WinNT
#	Creation time:	15. 06. 2019 21:03

#	Modifying user name:	WinNT
#	Modification time:	15. 06. 2019 21:03

#	Program:	/corina/corina34_cracker 3.40 0067  02.08.2006

@<TRIPOS>MOLECULE
ASD05790057
  45   48    0    0    0
SMALL
NO_CHARGES


@<TRIPOS>ATOM
   1 C1            -0.3221     1.4556    -0.5564 C.2     
   2 C2            -0.3263    -0.0211    -0.5539 C.ar    
   3 C3             0.7096    -0.7271    -1.1724 C.ar    
   4 C4             0.6993    -2.1075    -1.1658 C.ar    
   5 C5            -0.3343    -2.7917    -0.5487 C.ar    
   6 C6            -1.3634    -2.0971     0.0657 C.ar    
   7 C7            -1.3622    -0.7183     0.0713 C.ar    
   8 O8             0.5837     2.0600    -1.0971 O.2     
   9 N9            -1.3251     2.1334     0.0360 N.am    
  10 C10           -1.2659     3.5251     0.1324 C.ar    
  11 C11           -2.4319     4.2772     0.0396 C.ar    
  12 C12           -2.3768     5.6505     0.1338 C.ar    
  13 C13           -1.1483     6.2872     0.3232 C.ar    
  14 C14            0.0207     5.5289     0.4165 C.ar    
  15 C15           -0.0418     4.1556     0.3267 C.ar    
  16 O16           -2.1369     8.5944     0.3501 O.3     
  17 C17           -1.0856     7.7598     0.4242 C.2     
  18 N18            0.0048     8.4666     0.6013 N.2     
  19 C19           -0.3317     9.7727     0.6438 C.2     
  20 C20           -1.6769     9.8534     0.4860 C.2     
  21 C21           -2.5017    11.1146     0.4670 C.3     
  22 F22           -2.6867    11.5308    -0.8558 F       
  23 F23           -3.7461    10.8668     1.0563 F       
  24 F24           -1.8380    12.1167     1.1827 F       
  25 C25            0.5997    10.9128     0.8300 C.ar    
  26 C26            1.5247    10.8979     1.8737 C.ar    
  27 C27            2.3889    11.9621     2.0418 C.ar    
  28 C28            2.3374    13.0409     1.1776 C.ar    
  29 C29            1.4216    13.0607     0.1413 C.ar    
  30 C30            0.5574    11.9996    -0.0404 C.ar    
  31 Cl31           1.5893     9.5449     2.9595 Cl      
  32 Cl32          -0.3409    -4.5277    -0.5455 Cl      
  33 Cl33           2.0053     0.1298    -1.9474 Cl      
  34 H34            1.4987    -2.6548    -1.6432 H       
  35 H35           -2.1667    -2.6369     0.5450 H       
  36 H36           -2.1630    -0.1786     0.5547 H       
  37 H37           -2.0882     1.6543     0.3954 H       
  38 H38           -3.3816     3.7842    -0.1069 H       
  39 H39           -3.2826     6.2341     0.0610 H       
  40 H40            0.9723     6.0183     0.5626 H       
  41 H41            0.8613     3.5684     0.4031 H       
  42 H42            3.1057    11.9520     2.8495 H       
  43 H43            3.0147    13.8712     1.3128 H       
  44 H44            1.3855    13.9060    -0.5298 H       
  45 H45           -0.1537    12.0142    -0.8532 H       
@<TRIPOS>BOND
   1    1    2 1
   2    1    8 2
   3    1    9 am
   4    2    3 ar
   5    2    7 ar
   6    3    4 ar
   7    3   33 1
   8    4    5 ar
   9    4   34 1
  10    5    6 ar
  11    5   32 1
  12    6    7 ar
  13    6   35 1
  14    7   36 1
  15    9   10 1
  16    9   37 1
  17   10   11 ar
  18   10   15 ar
  19   11   12 ar
  20   11   38 1
  21   12   13 ar
  22   12   39 1
  23   13   14 ar
  24   13   17 1
  25   14   15 ar
  26   14   40 1
  27   15   41 1
  28   16   17 1
  29   16   20 1
  30   17   18 2
  31   18   19 1
  32   19   20 2
  33   19   25 1
  34   20   21 1
  35   21   22 1
  36   21   23 1
  37   21   24 1
  38   25   26 ar
  39   25   30 ar
  40   26   27 ar
  41   26   31 1
  42   27   28 ar
  43   27   42 1
  44   28   29 ar
  45   28   43 1
  46   29   30 ar
  47   29   44 1
  48   30   45 1

#	End of record

