#	Name: ASD01900885
#	Creating user name:	WinNT
#	Creation time:	15. 06. 2019 19:52

#	Modifying user name:	WinNT
#	Modification time:	15. 06. 2019 19:52

#	Program:	/corina/corina34_cracker 3.40 0067  02.08.2006

@<TRIPOS>MOLECULE
ASD01900885
  40   42    0    0    0
SMALL
NO_CHARGES


@<TRIPOS>ATOM
   1 C1            -0.0167     1.3777     0.0096 C.ar    
   2 C2             0.0021    -0.0041     0.0020 C.ar    
   3 C3            -1.1856    -0.7119     0.0095 C.ar    
   4 C4            -2.3923    -0.0380     0.0241 C.ar    
   5 C5            -2.4123     1.3442     0.0313 C.ar    
   6 C6            -1.2243     2.0529     0.0305 C.ar    
   7 Cl7           -1.2486     3.7887     0.0401 Cl      
   8 C8             1.2779     2.1490     0.0014 C.3     
   9 S9             1.7811     2.4677    -1.7121 S.o2    
  10 C10            3.2904     3.3653    -1.5674 C.2     
  11 O11            2.1537     1.2569    -2.3557 O.2     
  12 O12            0.8876     3.3822    -2.3322 O.2     
  13 C13            4.5146     2.8367    -1.5133 C.2     
  14 N14            5.4894     3.7198    -1.4051 N.2     
  15 C15            5.1472     4.9697    -1.3651 C.2     
  16 S16            3.4476     5.1176    -1.4766 S.3     
  17 N17            6.0327     6.0337    -1.2538 N.am    
  18 C18            7.3583     5.8022    -1.1787 C.2     
  19 O19            7.7787     4.6624    -1.2085 O.2     
  20 C20            8.3027     6.9370    -1.0599 C.ar    
  21 N21            7.8375     8.1798    -1.0279 N.ar    
  22 C22            8.6420     9.2150    -0.9229 C.ar    
  23 C23           10.0145     9.0443    -0.8412 C.ar    
  24 C24           10.5431     7.7631    -0.8710 C.ar    
  25 C25            9.6716     6.6908    -0.9770 C.ar    
  26 C26            4.7638     1.3515    -1.5711 C.3     
  27 F27            4.9274     0.9577    -2.9035 F       
  28 F28            5.9218     1.0445    -0.8486 F       
  29 F29            3.6736     0.6738    -1.0150 F       
  30 H30            0.9446    -0.5312    -0.0101 H       
  31 H31           -1.1705    -1.7918     0.0036 H       
  32 H32           -3.3197    -0.5914     0.0296 H       
  33 H33           -3.3553     1.8707     0.0420 H       
  34 H34            1.1395     3.0968     0.5217 H       
  35 H35            2.0505     1.5677     0.5048 H       
  36 H36            5.6971     6.9435    -1.2300 H       
  37 H37            8.2269    10.2118    -0.9003 H       
  38 H38           10.6664     9.9012    -0.7555 H       
  39 H39           11.6095     7.6040    -0.8092 H       
  40 H40           10.0487     5.6791    -1.0030 H       
@<TRIPOS>BOND
   1    1    2 ar
   2    1    8 1
   3    1    6 ar
   4    2    3 ar
   5    2   30 1
   6    3    4 ar
   7    3   31 1
   8    4    5 ar
   9    4   32 1
  10    5    6 ar
  11    5   33 1
  12    6    7 1
  13    8    9 1
  14    8   34 1
  15    8   35 1
  16    9   10 1
  17    9   11 2
  18    9   12 2
  19   10   13 2
  20   10   16 1
  21   13   26 1
  22   13   14 1
  23   14   15 2
  24   15   16 1
  25   15   17 1
  26   17   18 am
  27   17   36 1
  28   18   19 2
  29   18   20 1
  30   20   21 ar
  31   20   25 ar
  32   21   22 ar
  33   22   23 ar
  34   22   37 1
  35   23   24 ar
  36   23   38 1
  37   24   25 ar
  38   24   39 1
  39   25   40 1
  40   26   27 1
  41   26   28 1
  42   26   29 1

#	End of record

