#	Name: ASD01916018
#	Creating user name:	WinNT
#	Creation time:	15. 06. 2019 20:06

#	Modifying user name:	WinNT
#	Modification time:	15. 06. 2019 20:06

#	Program:	/corina/corina34_cracker 3.40 0067  02.08.2006

@<TRIPOS>MOLECULE
ASD01916018
  44   46    0    0    0
SMALL
NO_CHARGES


@<TRIPOS>ATOM
   1 C1            -0.0236     1.4045    -0.1158 C.ar    
   2 C2            -0.0188     0.0619     0.2884 C.ar    
   3 C3            -1.2231    -0.6129     0.3367 C.ar    
   4 C4            -2.3949     0.0583    -0.0153 C.ar    
   5 C5            -3.6885    -0.6573     0.0344 C.2     
   6 N6            -4.8383     0.0362     0.1509 N.am    
   7 O7            -3.7146    -1.8709    -0.0298 O.2     
   8 C8             1.1988     2.1475    -0.1822 C.1     
   9 C9             2.2009     2.7566    -0.2367 C.1     
  10 C10            3.4233     3.4995    -0.3032 C.ar    
  11 C11            3.4106     4.8370    -0.7068 C.ar    
  12 C12            5.8080     3.6122    -0.0244 C.ar    
  13 C13            4.5941     5.5472    -0.7679 C.ar    
  14 N14           -2.3646     1.3316    -0.3941 N.ar    
  15 C15           -1.2413     2.0072    -0.4593 C.ar    
  16 C16            4.6341     2.8914     0.0411 C.ar    
  17 C17            5.7906     4.9350    -0.4299 C.ar    
  18 C18           -4.8173     1.4874     0.3792 C.3     
  19 F19            4.5850     6.8406    -1.1583 F       
  20 C20           -5.6776     2.1673    -0.6906 C.3     
  21 C21           -7.0779     1.5498    -0.6818 C.3     
  22 C22           -6.9820     0.0592    -1.0146 C.3     
  23 C23           -6.1365    -0.6437     0.0459 C.3     
  24 O24           -7.6616     1.7121     0.6124 O.3     
  25 C25           -7.9503     2.2501    -1.7256 C.3     
  26 H26            0.9036    -0.4325     0.5550 H       
  27 H27           -1.2574    -1.6479     0.6431 H       
  28 H28            2.4784     5.3143    -0.9706 H       
  29 H29            6.7440     3.1417     0.2378 H       
  30 H30           -1.2568     3.0410    -0.7714 H       
  31 H31            4.6502     1.8592     0.3582 H       
  32 H32            6.7132     5.4944    -0.4788 H       
  33 H33           -5.2213     1.7078     1.3673 H       
  34 H34           -3.7928     1.8533     0.3110 H       
  35 H35           -5.7489     3.2337    -0.4766 H       
  36 H36           -5.2221     2.0221    -1.6702 H       
  37 H37           -7.9817    -0.3750    -1.0312 H       
  38 H38           -6.5142    -0.0662    -1.9911 H       
  39 H39           -5.9833    -1.6845    -0.2397 H       
  40 H40           -6.6458    -0.5980     1.0085 H       
  41 H41           -8.5520     1.3433     0.6913 H       
  42 H42           -7.5051     2.1270    -2.7129 H       
  43 H43           -8.9477     1.8104    -1.7195 H       
  44 H44           -8.0197     3.3116    -1.4880 H       
@<TRIPOS>BOND
   1    1    2 ar
   2    1    8 1
   3    1   15 ar
   4    2    3 ar
   5    2   26 1
   6    3    4 ar
   7    3   27 1
   8    4   14 ar
   9    4    5 1
  10    5    6 am
  11    5    7 2
  12    6   18 1
  13    6   23 1
  14    8    9 3
  15    9   10 1
  16   10   11 ar
  17   10   16 ar
  18   11   13 ar
  19   11   28 1
  20   12   17 ar
  21   12   16 ar
  22   12   29 1
  23   13   19 1
  24   13   17 ar
  25   14   15 ar
  26   15   30 1
  27   16   31 1
  28   17   32 1
  29   18   20 1
  30   18   33 1
  31   18   34 1
  32   20   21 1
  33   20   35 1
  34   20   36 1
  35   21   22 1
  36   21   24 1
  37   21   25 1
  38   22   23 1
  39   22   37 1
  40   22   38 1
  41   23   39 1
  42   23   40 1
  43   24   41 1
  44   25   42 1
  45   25   43 1
  46   25   44 1

#	End of record

