#	Name: ASD01230204
#	Creating user name:	WinNT
#	Creation time:	15. 06. 2019 19:12

#	Modifying user name:	WinNT
#	Modification time:	15. 06. 2019 19:12

#	Program:	/corina/corina34_cracker 3.40 0067  02.08.2006

@<TRIPOS>MOLECULE
ASD01230204
  45   48    0    0    0
SMALL
NO_CHARGES


@<TRIPOS>ATOM
   1 S1            -0.0204     1.6504     0.0111 S.o2    
   2 N2             0.0021    -0.0041     0.0020 N.am    
   3 C3             1.0230    -0.6873    -0.4557 C.2     
   4 N4             2.1689    -0.1518    -0.9712 N.pl3   
   5 C5             2.3935     1.2854    -1.1472 C.3     
   6 C6             1.7501     2.0749    -0.0035 C.3     
   7 C7             0.8952    -2.1590    -0.3951 C.2     
   8 C8             1.9454    -2.9419    -0.8226 C.2     
   9 C9             3.1046    -2.3189    -1.3055 C.2     
  10 C10            3.1912    -0.9791    -1.3650 C.2     
  11 C11           -0.3451    -2.7835     0.1187 C.ar    
  12 C12           -0.3146    -3.5356     1.2936 C.ar    
  13 C13           -1.4717    -4.1153     1.7693 C.ar    
  14 C14           -2.6661    -3.9517     1.0806 C.ar    
  15 C15           -2.7004    -3.2040    -0.0888 C.ar    
  16 C16           -1.5484    -2.6165    -0.5675 C.ar    
  17 O17           -3.8044    -4.5252     1.5520 O.3     
  18 C18           -4.9978    -4.3167     0.7942 C.3     
  19 O19           -6.4579    -4.4190     2.7494 O.3     
  20 C20           -6.1659    -5.0328     1.4751 C.3     
  21 C21           -7.4589    -4.8592     0.6478 C.3     
  22 C22           -8.5684    -4.7078     1.7125 C.3     
  23 C23           -7.8144    -4.8079     3.0571 C.3     
  24 O24           -0.6346     2.0065    -1.2198 O.2     
  25 O25           -0.6110     1.9932     1.2573 O.2     
  26 H26            3.4654     1.4826    -1.1617 H       
  27 H27            1.9572     1.6041    -2.0939 H       
  28 H28            1.8743     3.1442    -0.1745 H       
  29 H29            2.2074     1.7939     0.9452 H       
  30 H30            1.8766    -4.0190    -0.7858 H       
  31 H31            3.9378    -2.9227    -1.6334 H       
  32 H32            4.1024    -0.5350    -1.7377 H       
  33 H33            0.6143    -3.6639     1.8295 H       
  34 H34           -1.4488    -4.6976     2.6786 H       
  35 H35           -3.6313    -3.0789    -0.6219 H       
  36 H36           -1.5766    -2.0316    -1.4750 H       
  37 H37           -5.2099    -3.2491     0.7367 H       
  38 H38           -4.8639    -4.7152    -0.2115 H       
  39 H39           -5.9369    -6.0903     1.6068 H       
  40 H40           -7.3990    -3.9640     0.0288 H       
  41 H41           -7.6390    -5.7398     0.0311 H       
  42 H42           -9.0569    -3.7378     1.6198 H       
  43 H43           -9.2968    -5.5136     1.6222 H       
  44 H44           -7.8401    -5.8314     3.4313 H       
  45 H45           -8.2485    -4.1250     3.7873 H       
@<TRIPOS>BOND
   1    1    2 am
   2    1    6 1
   3    1   24 2
   4    1   25 2
   5    2    3 2
   6    3    4 1
   7    3    7 1
   8    4    5 1
   9    4   10 1
  10    5    6 1
  11    5   26 1
  12    5   27 1
  13    6   28 1
  14    6   29 1
  15    7    8 2
  16    7   11 1
  17    8    9 1
  18    8   30 1
  19    9   10 2
  20    9   31 1
  21   10   32 1
  22   11   12 ar
  23   11   16 ar
  24   12   13 ar
  25   12   33 1
  26   13   14 ar
  27   13   34 1
  28   14   15 ar
  29   14   17 1
  30   15   16 ar
  31   15   35 1
  32   16   36 1
  33   17   18 1
  34   18   20 1
  35   18   37 1
  36   18   38 1
  37   19   20 1
  38   19   23 1
  39   20   21 1
  40   20   39 1
  41   21   22 1
  42   21   40 1
  43   21   41 1
  44   22   23 1
  45   22   42 1
  46   22   43 1
  47   23   44 1
  48   23   45 1

#	End of record

