#	Name: ASD03330159
#	Creating user name:	WinNT
#	Creation time:	15. 06. 2019 20:36

#	Modifying user name:	WinNT
#	Modification time:	15. 06. 2019 20:36

#	Program:	/corina/corina34_cracker 3.40 0067  02.08.2006

@<TRIPOS>MOLECULE
ASD03330159
  48   50    0    0    0
SMALL
NO_CHARGES


@<TRIPOS>ATOM
   1 C1             0.0158     1.4061    -0.0096 C.2     
   2 C2            -0.0246     0.0428    -0.0096 C.2     
   3 C3             1.2105    -0.5699    -0.0040 C.2     
   4 C4             2.2757     0.3024     0.0006 C.2     
   5 S5             1.6845     1.9580    -0.0022 S.3     
   6 C6            -1.1574     2.2804    -0.0205 C.2     
   7 O7            -2.2746     1.7992    -0.0305 O.2     
   8 O8            -1.0000     3.6205    -0.0194 O.3     
   9 C9             1.3774    -2.0430    -0.0031 C.ar    
  10 C10            0.7783    -2.8134     0.9926 C.ar    
  11 C11            0.9356    -4.1837     0.9906 C.ar    
  12 C12            1.6898    -4.7958    -0.0011 C.ar    
  13 C13            2.2876    -4.0317    -0.9939 C.ar    
  14 C14            2.1292    -2.6616    -1.0012 C.ar    
  15 O15            1.8436    -6.1462     0.0003 O.3     
  16 C16            2.6323    -6.7104    -1.0493 C.3     
  17 C17            2.6913    -8.2301    -0.8824 C.3     
  18 C18            3.5357    -8.8342    -2.0062 C.3     
  19 S19            3.6057   -10.6360    -1.8083 S.o2    
  20 O20            4.3085   -10.9328    -0.6095 O.2     
  21 O21            2.2994   -11.1630    -1.9954 O.2     
  22 C22            4.6350   -11.1281    -3.2187 C.3     
  23 C23            3.6972    -0.0922     0.0077 C.ar    
  24 C24            4.5871     0.4719    -0.9119 C.ar    
  25 C25            5.9155     0.0986    -0.8994 C.ar    
  26 C26            6.3675    -0.8330     0.0219 C.ar    
  27 C27            5.4897    -1.3951     0.9356 C.ar    
  28 C28            4.1610    -1.0265     0.9368 C.ar    
  29 F29            7.6691    -1.1949     0.0292 F       
  30 Cl30           4.0218     1.6384    -2.0666 Cl      
  31 H31           -0.9507    -0.5128    -0.0133 H       
  32 H32           -1.8315     4.1141    -0.0271 H       
  33 H33            0.1919    -2.3377     1.7649 H       
  34 H34            0.4718    -4.7810     1.7616 H       
  35 H35            2.8741    -4.5110    -1.7638 H       
  36 H36            2.5909    -2.0681    -1.7765 H       
  37 H37            2.1827    -6.4678    -2.0122 H       
  38 H38            3.6414    -6.3006    -1.0059 H       
  39 H39            3.1409    -8.4727     0.0805 H       
  40 H40            1.6822    -8.6398    -0.9258 H       
  41 H41            3.0862    -8.5916    -2.9691 H       
  42 H42            4.5449    -8.4244    -1.9628 H       
  43 H43            5.6118   -10.6509    -3.1396 H       
  44 H44            4.7586   -12.2111    -3.2179 H       
  45 H45            4.1531   -10.8181    -4.1459 H       
  46 H46            6.6041     0.5329    -1.6090 H       
  47 H47            5.8482    -2.1205     1.6510 H       
  48 H48            3.4794    -1.4622     1.6523 H       
@<TRIPOS>BOND
   1    1    2 2
   2    1    5 1
   3    1    6 1
   4    2    3 1
   5    2   31 1
   6    3    4 2
   7    3    9 1
   8    4    5 1
   9    4   23 1
  10    6    7 2
  11    6    8 1
  12    8   32 1
  13    9   10 ar
  14    9   14 ar
  15   10   11 ar
  16   10   33 1
  17   11   12 ar
  18   11   34 1
  19   12   13 ar
  20   12   15 1
  21   13   14 ar
  22   13   35 1
  23   14   36 1
  24   15   16 1
  25   16   17 1
  26   16   37 1
  27   16   38 1
  28   17   18 1
  29   17   39 1
  30   17   40 1
  31   18   19 1
  32   18   41 1
  33   18   42 1
  34   19   20 2
  35   19   21 2
  36   19   22 1
  37   22   43 1
  38   22   44 1
  39   22   45 1
  40   23   24 ar
  41   23   28 ar
  42   24   25 ar
  43   24   30 1
  44   25   26 ar
  45   25   46 1
  46   26   27 ar
  47   26   29 1
  48   27   28 ar
  49   27   47 1
  50   28   48 1

#	End of record

