#	Name: ASD03730008
#	Creating user name:	WinNT
#	Creation time:	15. 06. 2019 20:43

#	Modifying user name:	WinNT
#	Modification time:	15. 06. 2019 20:43

#	Program:	/corina/corina34_cracker 3.40 0067  02.08.2006

@<TRIPOS>MOLECULE
ASD03730008
  47   52    0    0    0
SMALL
NO_CHARGES


@<TRIPOS>ATOM
   1 C1            -0.0179     1.4712     0.0101 C.2     
   2 C2             0.0021    -0.0041     0.0020 C.ar    
   3 C3             1.2197    -0.6896    -0.0133 C.ar    
   4 C4             1.2307    -2.0685    -0.0208 C.ar    
   5 C5             0.0396    -2.7734    -0.0133 C.ar    
   6 C6            -1.1697    -2.1014     0.0018 C.ar    
   7 C7            -1.1961    -0.7223     0.0154 C.ar    
   8 O8             1.0327     2.0970     0.0035 O.co2   
   9 O9            -1.0852     2.0682     0.0184 O.co2   
  10 C10            2.5427    -2.8096    -0.0379 C.3     
  11 O11           -0.8940    -3.3244     6.2562 O.3     
  12 C12           -0.9346    -3.5794     7.6726 C.3     
  13 O13           -0.0297    -4.6856     7.8473 O.3     
  14 C14            0.8678    -4.5894     6.8226 C.ar    
  15 C15            0.3353    -3.7531     5.8440 C.ar    
  16 C16            2.1168    -5.1562     6.6431 C.ar    
  17 C17            2.8485    -4.8987     5.4877 C.ar    
  18 C18            2.3026    -4.0683     4.5137 C.ar    
  19 C19            1.0601    -3.4967     4.6924 C.ar    
  20 O20            4.0884    -5.3364     5.1253 O.3     
  21 C21            3.3038    -4.0079     3.3912 C.3     
  22 C22            4.2534    -5.1724     3.7036 C.3     
  23 N23            2.9816    -3.0573     1.3378 N.am    
  24 C24            2.6573    -4.1584     2.0444 C.2     
  25 C25            4.0266    -2.6945     3.3410 C.ar    
  26 C26            4.7989    -1.9984     4.2438 C.ar    
  27 C27            5.3449    -0.7769     3.8919 C.ar    
  28 C28            5.1125    -0.2565     2.6317 C.ar    
  29 C29            4.3387    -0.9495     1.7242 C.ar    
  30 C30            3.7855    -2.1801     2.0697 C.ar    
  31 O31            1.9771    -5.0887     1.6662 O.2     
  32 H32            2.1498    -0.1408    -0.0195 H       
  33 H33            0.0543    -3.8533    -0.0196 H       
  34 H34           -2.0953    -2.6580     0.0073 H       
  35 H35           -2.1407    -0.1990     0.0321 H       
  36 H36            2.4162    -3.7604    -0.5556 H       
  37 H37            3.2917    -2.2107    -0.5559 H       
  38 H38           -0.5869    -2.7087     8.2286 H       
  39 H39           -1.9421    -3.8561     7.9832 H       
  40 H40            2.5268    -5.8030     7.4047 H       
  41 H41            0.6513    -2.8478     3.9320 H       
  42 H42            5.2828    -4.9082     3.4613 H       
  43 H43            3.9485    -6.0738     3.1720 H       
  44 H44            4.9789    -2.4066     5.2274 H       
  45 H45            5.9514    -0.2311     4.5994 H       
  46 H46            5.5386     0.6971     2.3570 H       
  47 H47            4.1613    -0.5364     0.7422 H       
@<TRIPOS>BOND
   1    1    2 1
   2    1    8 ar
   3    1    9 ar
   4    2    3 ar
   5    2    7 ar
   6    3    4 ar
   7    3   32 1
   8    4    5 ar
   9    4   10 1
  10    5    6 ar
  11    5   33 1
  12    6    7 ar
  13    6   34 1
  14    7   35 1
  15   10   23 1
  16   10   36 1
  17   10   37 1
  18   11   12 1
  19   11   15 1
  20   12   13 1
  21   12   38 1
  22   12   39 1
  23   13   14 1
  24   14   15 ar
  25   14   16 ar
  26   15   19 ar
  27   16   17 ar
  28   16   40 1
  29   17   18 ar
  30   17   20 1
  31   18   19 ar
  32   18   21 1
  33   19   41 1
  34   20   22 1
  35   21   22 1
  36   21   24 1
  37   21   25 1
  38   22   42 1
  39   22   43 1
  40   23   24 am
  41   23   30 1
  42   24   31 2
  43   25   26 ar
  44   25   30 ar
  45   26   27 ar
  46   26   44 1
  47   27   28 ar
  48   27   45 1
  49   28   29 ar
  50   28   46 1
  51   29   30 ar
  52   29   47 1

#	End of record

