#	Name: ASD01941045
#	Creating user name:	WinNT
#	Creation time:	15. 06. 2019 20:13

#	Modifying user name:	WinNT
#	Modification time:	15. 06. 2019 20:13

#	Program:	/corina/corina34_cracker 3.40 0067  02.08.2006

@<TRIPOS>MOLECULE
ASD01941045
  43   45    0    0    0
SMALL
NO_CHARGES


@<TRIPOS>ATOM
   1 N1            -0.0129     1.4150    -0.4142 N.am    
   2 C2             0.0279     0.0619    -0.4224 C.2     
   3 N3            -1.0428    -0.6733    -0.2940 N.2     
   4 C4            -2.2536    -0.1184    -0.1451 C.2     
   5 C5            -2.3650     1.2791    -0.1278 C.2     
   6 C6            -1.1914     2.0616    -0.2633 C.2     
   7 N7            -3.3745    -0.8887    -0.0112 N.am    
   8 C8            -4.5911    -0.3384     0.1375 C.2     
   9 C9            -4.7770     1.0473     0.1639 C.2     
  10 C10           -3.6832     1.8890     0.0350 C.2     
  11 C11           -3.2467    -2.3480    -0.0308 C.3     
  12 O12           -5.5620    -1.0690     0.2525 O.2     
  13 O13           -1.2432     3.2788    -0.2531 O.2     
  14 N14           -3.8347     3.2619     0.0576 N.pl3   
  15 C15           -3.2887     4.0087     1.1073 C.ar    
  16 C16           -2.7080     3.3643     2.1909 C.ar    
  17 C17           -2.1696     4.1043     3.2262 C.ar    
  18 C18           -2.2084     5.4861     3.1846 C.ar    
  19 C19           -2.7862     6.1330     2.1065 C.ar    
  20 C20           -3.3216     5.3989     1.0646 C.ar    
  21 F21           -3.8854     6.0303     0.0117 F       
  22 I22           -1.3910     6.6023     4.7578 I       
  23 C23            1.2259     2.1826    -0.5635 C.3     
  24 C24            1.4826     2.4532    -2.0473 C.3     
  25 C25            2.8371     3.1450    -2.2127 C.3     
  26 O26            3.1298     3.2930    -3.6036 O.3     
  27 O27            0.4508     3.2966    -2.5631 O.3     
  28 Cl28          -6.3696     1.7101     0.3586 Cl      
  29 H29            0.9832    -0.4281    -0.5400 H       
  30 H30           -3.0911    -2.7127     0.9846 H       
  31 H31           -4.1569    -2.7871    -0.4391 H       
  32 H32           -2.3968    -2.6300    -0.6523 H       
  33 H33           -4.3195     3.7081    -0.6542 H       
  34 H34           -2.6773     2.2853     2.2249 H       
  35 H35           -1.7181     3.6028     4.0694 H       
  36 H36           -2.8149     7.2122     2.0769 H       
  37 H37            1.1327     3.1298    -0.0322 H       
  38 H38            2.0580     1.6137    -0.1487 H       
  39 H39            1.4874     1.5097    -2.5932 H       
  40 H40            2.8031     4.1276    -1.7421 H       
  41 H41            3.6130     2.5425    -1.7403 H       
  42 H42            3.9759     3.7251    -3.7837 H       
  43 H43            0.3881     4.1554    -2.1231 H       
@<TRIPOS>BOND
   1    1    2 1
   2    1   23 1
   3    1    6 am
   4    2    3 2
   5    2   29 1
   6    3    4 1
   7    4    5 2
   8    4    7 1
   9    5    6 1
  10    5   10 1
  11    6   13 2
  12    7    8 am
  13    7   11 1
  14    8    9 1
  15    8   12 2
  16    9   10 2
  17    9   28 1
  18   10   14 1
  19   11   30 1
  20   11   31 1
  21   11   32 1
  22   14   15 1
  23   14   33 1
  24   15   16 ar
  25   15   20 ar
  26   16   17 ar
  27   16   34 1
  28   17   18 ar
  29   17   35 1
  30   18   19 ar
  31   18   22 1
  32   19   20 ar
  33   19   36 1
  34   20   21 1
  35   23   24 1
  36   23   37 1
  37   23   38 1
  38   24   25 1
  39   24   27 1
  40   24   39 1
  41   25   26 1
  42   25   40 1
  43   25   41 1
  44   26   42 1
  45   27   43 1

#	End of record

