#	Name: ASD01811054
#	Creating user name:	WinNT
#	Creation time:	15. 06. 2019 19:25

#	Modifying user name:	WinNT
#	Modification time:	15. 06. 2019 19:25

#	Program:	/corina/corina34_cracker 3.40 0067  02.08.2006

@<TRIPOS>MOLECULE
ASD01811054
 123  128    0    0    0
SMALL
NO_CHARGES


@<TRIPOS>ATOM
   1 C1            -0.2343     3.8581    -0.0758 C.ar    
   2 C2            -0.3778     2.4858    -0.1815 C.ar    
   3 C3             0.7347     1.6757    -0.3311 C.ar    
   4 C4             1.9956     2.2314    -0.3754 C.ar    
   5 C5             2.1490     3.6176    -0.2692 C.ar    
   6 C6             1.0202     4.4292    -0.1188 C.ar    
   7 C7             1.1742     5.9239    -0.0041 C.3     
   8 C8             3.4914     4.2189    -0.3151 C.2     
   9 C9             4.7122     3.3357    -0.3382 C.3     
  10 O10            3.6152     5.4250    -0.3343 O.2     
  11 C11            5.9701     4.2054    -0.3852 C.3     
  12 C12            7.2096     3.3087    -0.4087 C.3     
  13 N13            8.4173     4.1438    -0.4538 N.3     
  14 C14            9.6244     3.3354    -0.2394 C.3     
  15 C15           10.8452     4.2536    -0.1477 C.3     
  16 C16           10.9710     5.0584    -1.4442 C.3     
  17 C17            9.6820     5.8538    -1.6691 C.3     
  18 C18            8.4949     4.8892    -1.7166 C.3     
  19 C19           12.1541     6.0223    -1.3350 C.3     
  20 C20           12.3559     6.7359    -2.6733 C.3     
  21 C21           13.5390     7.6998    -2.5640 C.3     
  22 C22           13.7408     8.4133    -3.9023 C.3     
  23 C23           14.9239     9.3772    -3.7931 C.3     
  24 N24           15.1171    10.0605    -5.0745 N.am    
  25 C25           17.7134    10.9197    -4.7655 C.ar    
  26 C26           18.5667    10.5088    -5.7746 C.ar    
  27 C27           19.8560    10.1205    -5.4766 C.ar    
  28 C28           20.3004    10.1433    -4.1514 C.ar    
  29 C29           19.4325    10.5602    -3.1374 C.ar    
  30 C30           18.1479    10.9499    -3.4515 C.ar    
  31 C31           21.6777     9.7291    -3.8243 C.2     
  32 C32           22.7758    10.5662    -4.1058 C.2     
  33 C33           24.0840    10.1318    -3.7762 C.2     
  34 O34           24.2919     8.9281    -3.1971 O.3     
  35 C35           23.2830     8.0825    -2.9029 C.ar    
  36 C36           21.9492     8.4355    -3.1899 C.ar    
  37 C37           22.5608    11.8238    -4.7106 C.2     
  38 C38           23.6093    12.6342    -4.9846 C.2     
  39 C39           25.1561    10.9348    -4.0444 C.2     
  40 C40           24.9632    12.1942    -4.6484 C.2     
  41 N41           26.0045    12.9765    -4.9101 N.2     
  42 C42           25.8138    14.2273    -5.6486 C.3     
  43 C43           27.3436    12.5885    -4.4601 C.3     
  44 C44           26.5353    14.1397    -6.9949 C.3     
  45 C45           27.8432    13.5932    -3.4199 C.3     
  46 C46           20.9054     7.5544    -2.8821 C.ar    
  47 C47           21.1817     6.3510    -2.3027 C.ar    
  48 C48           22.5004     5.9937    -2.0145 C.ar    
  49 C49           23.5461     6.8584    -2.3090 C.ar    
  50 N50           22.7680     4.7645    -1.4235 N.pl3   
  51 C51           21.6688     3.8498    -1.1054 C.3     
  52 C52           24.1494     4.3836    -1.1187 C.3     
  53 C53           21.4085     2.9303    -2.3003 C.3     
  54 C54           24.5079     4.8521     0.2930 C.3     
  55 S55           19.9810    10.5926    -1.4633 S.o2    
  56 O56           20.5460    11.9131    -1.2325 O.co2   
  57 O57           18.8115    10.3468    -0.6339 O.co2   
  58 O58           20.9771     9.5412    -1.3278 O.co2   
  59 S59           16.0678    11.4139    -5.1562 S.o2    
  60 O60           16.0818    11.8128    -6.5200 O.2     
  61 O61           15.6438    12.2664    -4.1014 O.2     
  62 H62           -1.1074     4.4838     0.0362 H       
  63 H63           -1.3629     2.0444    -0.1468 H       
  64 H64            0.6146     0.6055    -0.4129 H       
  65 H65            2.8626     1.5980    -0.4914 H       
  66 H66            1.2596     6.3579    -1.0003 H       
  67 H67            0.3029     6.3412     0.5006 H       
  68 H68            2.0715     6.1536     0.5705 H       
  69 H69            4.7309     2.7180     0.5597 H       
  70 H70            4.6805     2.6949    -1.2194 H       
  71 H71            5.9515     4.8231    -1.2831 H       
  72 H72            6.0019     4.8462     0.4960 H       
  73 H73            7.2283     2.6910     0.4892 H       
  74 H74            7.1778     2.6679    -1.2899 H       
  75 H75            9.5237     2.7713     0.6879 H       
  76 H76            9.7514     2.6443    -1.0727 H       
  77 H77           10.7251     4.9358     0.6939 H       
  78 H78           11.7429     3.6522    -0.0042 H       
  79 H79           11.1300     4.3784    -2.2811 H       
  80 H80            9.5436     6.5611    -0.8514 H       
  81 H81            9.7487     6.3956    -2.6125 H       
  82 H82            8.6272     4.1908    -2.5430 H       
  83 H83            7.5739     5.4536    -1.8623 H       
  84 H84           11.9521     6.7589    -0.5574 H       
  85 H85           13.0553     5.4641    -1.0814 H       
  86 H86           12.5579     5.9993    -3.4509 H       
  87 H87           11.4547     7.2941    -2.9269 H       
  88 H88           13.3370     8.4364    -1.7864 H       
  89 H89           14.4402     7.1416    -2.3104 H       
  90 H90           13.9428     7.6767    -4.6800 H       
  91 H91           12.8396     8.9715    -4.1560 H       
  92 H92           14.7219    10.1138    -3.0155 H       
  93 H93           15.8251     8.8190    -3.5395 H       
  94 H94           14.6881     9.7201    -5.8752 H       
  95 H95           18.2219    10.4917    -6.7980 H       
  96 H96           20.5206     9.7994    -6.2650 H       
  97 H97           17.4765    11.2725    -2.6694 H       
  98 H98           21.5574    12.1395    -4.9554 H       
  99 H99           23.4480    13.5965    -5.4475 H       
 100 H100          26.1532    10.6044    -3.7935 H       
 101 H101          24.7494    14.3912    -5.8168 H       
 102 H102          26.2222    15.0564    -5.0708 H       
 103 H103          27.3034    11.5943    -4.0149 H       
 104 H104          28.0242    12.5781    -5.3114 H       
 105 H105          26.3934    15.0703    -7.5445 H       
 106 H106          27.5997    13.9758    -6.8267 H       
 107 H107          26.1269    13.3106    -7.5728 H       
 108 H108          27.8834    14.5874    -3.8651 H       
 109 H109          27.1626    13.6036    -2.5686 H       
 110 H110          28.8395    13.3045    -3.0851 H       
 111 H111          19.8839     7.8271    -3.1026 H       
 112 H112          20.3767     5.6714    -2.0652 H       
 113 H113          24.5632     6.5742    -2.0829 H       
 114 H114          21.9360     3.2490    -0.2361 H       
 115 H115          20.7691     4.4251    -0.8869 H       
 116 H116          24.2490     3.2998    -1.1781 H       
 117 H117          24.8222     4.8502    -1.8382 H       
 118 H118          21.1412     3.5310    -3.1696 H       
 119 H119          22.3081     2.3550    -2.5188 H       
 120 H120          20.5906     2.2497    -2.0636 H       
 121 H121          24.4083     5.9359     0.3524 H       
 122 H122          23.8351     4.3854     1.0125 H       
 123 H123          25.5357     4.5687     0.5198 H       
@<TRIPOS>BOND
   1    1    2 ar
   2    1    6 ar
   3    1   62 1
   4    2    3 ar
   5    2   63 1
   6    3    4 ar
   7    3   64 1
   8    4    5 ar
   9    4   65 1
  10    5    6 ar
  11    5    8 1
  12    6    7 1
  13    7   66 1
  14    7   67 1
  15    7   68 1
  16    8    9 1
  17    8   10 2
  18    9   11 1
  19    9   69 1
  20    9   70 1
  21   11   12 1
  22   11   71 1
  23   11   72 1
  24   12   13 1
  25   12   73 1
  26   12   74 1
  27   13   14 1
  28   13   18 1
  29   14   15 1
  30   14   75 1
  31   14   76 1
  32   15   16 1
  33   15   77 1
  34   15   78 1
  35   16   17 1
  36   16   19 1
  37   16   79 1
  38   17   18 1
  39   17   80 1
  40   17   81 1
  41   18   82 1
  42   18   83 1
  43   19   20 1
  44   19   84 1
  45   19   85 1
  46   20   21 1
  47   20   86 1
  48   20   87 1
  49   21   22 1
  50   21   88 1
  51   21   89 1
  52   22   23 1
  53   22   90 1
  54   22   91 1
  55   23   24 1
  56   23   92 1
  57   23   93 1
  58   24   59 am
  59   24   94 1
  60   25   26 ar
  61   25   59 1
  62   25   30 ar
  63   26   27 ar
  64   26   95 1
  65   27   28 ar
  66   27   96 1
  67   28   29 ar
  68   28   31 1
  69   29   30 ar
  70   29   55 1
  71   30   97 1
  72   31   32 2
  73   31   36 1
  74   32   33 1
  75   32   37 1
  76   33   34 1
  77   33   39 2
  78   34   35 1
  79   35   36 ar
  80   35   49 ar
  81   36   46 ar
  82   37   38 2
  83   37   98 1
  84   38   40 1
  85   38   99 1
  86   39   40 1
  87   39  100 1
  88   40   41 2
  89   41   42 1
  90   41   43 1
  91   42   44 1
  92   42  101 1
  93   42  102 1
  94   43   45 1
  95   43  103 1
  96   43  104 1
  97   44  105 1
  98   44  106 1
  99   44  107 1
 100   45  108 1
 101   45  109 1
 102   45  110 1
 103   46   47 ar
 104   46  111 1
 105   47   48 ar
 106   47  112 1
 107   48   49 ar
 108   48   50 1
 109   49  113 1
 110   50   51 1
 111   50   52 1
 112   51   53 1
 113   51  114 1
 114   51  115 1
 115   52   54 1
 116   52  116 1
 117   52  117 1
 118   53  118 1
 119   53  119 1
 120   53  120 1
 121   54  121 1
 122   54  122 1
 123   54  123 1
 124   55   56 ar
 125   55   57 ar
 126   55   58 ar
 127   59   60 2
 128   59   61 2

#	End of record

