#	Name: ASD03090702
#	Creating user name:	WinNT
#	Creation time:	15. 06. 2019 20:29

#	Modifying user name:	WinNT
#	Modification time:	15. 06. 2019 20:29

#	Program:	/corina/corina34_cracker 3.40 0067  02.08.2006

@<TRIPOS>MOLECULE
ASD03090702
  35   36    0    0    0
SMALL
NO_CHARGES


@<TRIPOS>ATOM
   1 N1            -0.0162     1.3436     0.0094 N.am    
   2 C2            -0.2043     0.1128    -0.5067 C.2     
   3 O3             0.6902    -0.4298    -1.1263 O.2     
   4 N4            -1.3839    -0.5163    -0.3362 N.am    
   5 O5            -0.6911    -2.5060    -1.5699 O.3     
   6 N6            -1.1524    -3.5741    -1.8986 N.2     
   7 C7            -2.3776    -3.7224    -1.4793 C.2     
   8 C8            -2.7079    -2.5439    -0.7806 C.2     
   9 C9            -1.5775    -1.7828    -0.8674 C.2     
  10 C10           -3.2668    -4.9192    -1.6989 C.3     
  11 F11           -2.5402    -5.9287    -2.3393 F       
  12 F12           -3.7298    -5.3888    -0.4651 F       
  13 F13           -4.3557    -4.5510    -2.4962 F       
  14 C14            1.2482     1.9485    -0.0615 C.ar    
  15 C15            1.3527     3.3294    -0.2082 C.ar    
  16 C16            2.6014     3.9244    -0.2781 C.ar    
  17 C17            3.7457     3.1450    -0.2019 C.ar    
  18 C18            3.6408     1.7682    -0.0556 C.ar    
  19 C19            2.3945     1.1722     0.0201 C.ar    
  20 O20            4.9720     3.7296    -0.2710 O.3     
  21 C21            5.0059     5.1502    -0.4220 C.3     
  22 O22            0.2296     4.0931    -0.2833 O.3     
  23 C23            0.4121     5.5024    -0.4334 C.3     
  24 F24            4.7568     1.0104     0.0184 F       
  25 H25           -0.7557     1.8128     0.4264 H       
  26 H26           -2.0975    -0.0834     0.1580 H       
  27 H27           -3.6388    -2.2993    -0.2908 H       
  28 H28            2.6839     4.9952    -0.3922 H       
  29 H29            2.3143     0.1017     0.1388 H       
  30 H30            4.4958     5.4298    -1.3437 H       
  31 H31            4.5059     5.6177     0.4263 H       
  32 H32            6.0419     5.4865    -0.4636 H       
  33 H33           -0.5607     5.9918    -0.4803 H       
  34 H34            0.9727     5.8889     0.4177 H       
  35 H35            0.9636     5.7015    -1.3523 H       
@<TRIPOS>BOND
   1    1    2 am
   2    1   14 1
   3    1   25 1
   4    2    3 2
   5    2    4 am
   6    4    9 1
   7    4   26 1
   8    5    6 1
   9    5    9 1
  10    6    7 2
  11    7    8 1
  12    7   10 1
  13    8    9 2
  14    8   27 1
  15   10   11 1
  16   10   12 1
  17   10   13 1
  18   14   15 ar
  19   14   19 ar
  20   15   16 ar
  21   15   22 1
  22   16   17 ar
  23   16   28 1
  24   17   18 ar
  25   17   20 1
  26   18   19 ar
  27   18   24 1
  28   19   29 1
  29   20   21 1
  30   21   30 1
  31   21   31 1
  32   21   32 1
  33   22   23 1
  34   23   33 1
  35   23   34 1
  36   23   35 1

#	End of record

