#	Name: ASD01190117
#	Creating user name:	WinNT
#	Creation time:	15. 06. 2019 19:07

#	Modifying user name:	WinNT
#	Modification time:	15. 06. 2019 19:07

#	Program:	/corina/corina34_cracker 3.40 0067  02.08.2006

@<TRIPOS>MOLECULE
ASD01190117
  51   55    0    0    0
SMALL
NO_CHARGES


@<TRIPOS>ATOM
   1 O1            -0.0642     1.5397    -0.3432 O.3     
   2 C2            -0.3205     0.2564    -0.7393 C.2     
   3 C3             0.8561    -0.4637    -1.2495 C.2     
   4 N4             2.1316     0.0692    -1.1314 N.pl3   
   5 C5             2.3816     1.3680    -0.4968 C.3     
   6 C6             1.1812     1.7261     0.3868 C.3     
   7 C7             0.9575    -1.6700    -1.8782 C.2     
   8 C8             2.3194    -1.8709    -2.1459 C.2     
   9 C9             3.0011    -0.7930    -1.6777 C.2     
  10 O10           -1.4260    -0.2465    -0.6749 O.2     
  11 C11            2.9206    -3.0705    -2.8317 C.3     
  12 C12            2.1667    -3.3441    -4.1346 C.3     
  13 O13            4.2960    -2.8136    -3.1222 O.3     
  14 N14            2.2612    -7.5082     0.5567 N.pl3   
  15 N15            0.8784    -7.4275     0.7513 N.2     
  16 C16            0.3922    -6.4132     0.0936 C.2     
  17 C17            1.4984    -5.7552    -0.5944 C.ar    
  18 C18            1.5961    -4.6399    -1.4339 C.ar    
  19 C19            2.8140    -4.2717    -1.9279 C.ar    
  20 C20            3.9564    -4.9941    -1.6057 C.ar    
  21 C21            3.8862    -6.0867    -0.7885 C.ar    
  22 C22            2.6577    -6.4859    -0.2692 C.ar    
  23 C23            3.1064    -8.4736     1.1190 C.ar    
  24 C24            2.8545    -8.9598     2.3951 C.ar    
  25 C25            3.6890    -9.9114     2.9477 C.ar    
  26 C26            4.7764   -10.3808     2.2300 C.ar    
  27 C27            5.0294    -9.8972     0.9572 C.ar    
  28 C28            4.1941    -8.9498     0.3988 C.ar    
  29 F29            5.5918   -11.3114     2.7725 F       
  30 F30            2.2657    -2.2290    -4.9737 F       
  31 F31            2.7248    -4.4578    -4.7713 F       
  32 F32            0.8202    -3.5957    -3.8503 F       
  33 C33            1.2954     3.1876     0.8250 C.3     
  34 O34            0.2576     3.4868     1.7607 O.3     
  35 H35            3.2810     1.3079     0.1161 H       
  36 H36            2.5109     2.1308    -1.2647 H       
  37 H37            1.1801     1.0859     1.2690 H       
  38 H38            0.1467    -2.3404    -2.1221 H       
  39 H39            4.0704    -0.6532    -1.7362 H       
  40 H40            4.8357    -2.6315    -2.3407 H       
  41 H41           -0.6448    -6.1131     0.0627 H       
  42 H42            0.7127    -4.0737    -1.6896 H       
  43 H43            4.9115    -4.6884    -2.0065 H       
  44 H44            4.7816    -6.6398    -0.5462 H       
  45 H45            2.0068    -8.5938     2.9553 H       
  46 H46            3.4936   -10.2896     3.9403 H       
  47 H47            5.8782   -10.2643     0.3993 H       
  48 H48            4.3889    -8.5765    -0.5957 H       
  49 H49            2.2656     3.3515     1.2939 H       
  50 H50            1.1981     3.8365    -0.0453 H       
  51 H51            0.2687     4.3987     2.0821 H       
@<TRIPOS>BOND
   1    1    2 1
   2    1    6 1
   3    2    3 1
   4    2   10 2
   5    3    4 1
   6    3    7 2
   7    4    5 1
   8    4    9 1
   9    5    6 1
  10    5   35 1
  11    5   36 1
  12    6   33 1
  13    6   37 1
  14    7    8 1
  15    7   38 1
  16    8    9 2
  17    8   11 1
  18    9   39 1
  19   11   12 1
  20   11   13 1
  21   11   19 1
  22   12   30 1
  23   12   31 1
  24   12   32 1
  25   13   40 1
  26   14   15 1
  27   14   22 1
  28   14   23 1
  29   15   16 2
  30   16   17 1
  31   16   41 1
  32   17   18 ar
  33   17   22 ar
  34   18   19 ar
  35   18   42 1
  36   19   20 ar
  37   20   21 ar
  38   20   43 1
  39   21   22 ar
  40   21   44 1
  41   23   24 ar
  42   23   28 ar
  43   24   25 ar
  44   24   45 1
  45   25   26 ar
  46   25   46 1
  47   26   27 ar
  48   26   29 1
  49   27   28 ar
  50   27   47 1
  51   28   48 1
  52   33   34 1
  53   33   49 1
  54   33   50 1
  55   34   51 1

#	End of record

