#	Name: ASD04640003
#	Creating user name:	WinNT
#	Creation time:	15. 06. 2019 20:52

#	Modifying user name:	WinNT
#	Modification time:	15. 06. 2019 20:52

#	Program:	/corina/corina34_cracker 3.40 0067  02.08.2006

@<TRIPOS>MOLECULE
ASD04640003
  57   60    0    0    0
SMALL
NO_CHARGES


@<TRIPOS>ATOM
   1 C1            -0.0180     1.3686     0.1399 C.ar    
   2 C2            -0.0010     0.0044     0.1259 C.ar    
   3 C3             1.2030    -0.6879     0.0878 C.ar    
   4 C4             2.4014    -0.0109     0.0639 C.ar    
   5 C5             2.4103     1.3813     0.0775 C.ar    
   6 C6             1.1883     2.0809     0.1157 C.ar    
   7 N7             3.4184     2.3159     0.0611 N.pl3   
   8 C8             2.8561     3.5775     0.0880 C.2     
   9 C9             1.5028     3.4614     0.1214 C.2     
  10 C10            3.6032     4.8441     0.0823 C.2     
  11 O11            3.0052     5.9031     0.1081 O.2     
  12 N12            4.9505     4.8317     0.0485 N.am    
  13 C13            5.6948     6.0935     0.0428 C.3     
  14 C14            7.1958     5.8001     0.0023 C.3     
  15 C15            7.9731     7.1180    -0.0036 C.3     
  16 O16            7.7553     7.8050     1.2304 O.3     
  17 C17            9.4663     6.8286    -0.1696 C.3     
  18 N18           10.2002     8.0955    -0.2892 N.3     
  19 C19            9.8400     8.7979    -1.5287 C.3     
  20 C20           11.6510     7.8726    -0.2162 C.3     
  21 C21           12.3745     9.2204    -0.2644 C.3     
  22 N22           12.0143     9.9228    -1.5039 N.3     
  23 C23           10.5635    10.1457    -1.5770 C.3     
  24 C24           12.7125    11.1280    -1.6177 C.ar    
  25 C25           12.5656    12.1116    -0.6481 C.ar    
  26 C26           13.5597    11.3426    -2.6981 C.ar    
  27 C27           14.2493    12.5367    -2.8068 C.ar    
  28 C28           14.0956    13.5158    -1.8410 C.ar    
  29 C29           13.2571    13.3018    -0.7625 C.ar    
  30 Cl30          13.7526    10.1138    -3.9091 Cl      
  31 Cl31          15.3087    12.8069    -4.1552 Cl      
  32 H32           -0.9589     1.8981     0.1650 H       
  33 H33           -0.9322    -0.5424     0.1449 H       
  34 H34            1.1987    -1.7679     0.0771 H       
  35 H35            3.3321    -0.5581     0.0350 H       
  36 H36            4.3684     2.1215     0.0351 H       
  37 H37            0.7941     4.2759     0.1470 H       
  38 H38            5.4274     3.9873     0.0280 H       
  39 H39            5.4147     6.6766    -0.8345 H       
  40 H40            5.4592     6.6584     0.9448 H       
  41 H41            7.4758     5.2171     0.8797 H       
  42 H42            7.4314     5.2353    -0.8996 H       
  43 H43            7.6292     7.7389    -0.8308 H       
  44 H44            8.0387     7.3101     2.0113 H       
  45 H45            9.8287     6.2793     0.6993 H       
  46 H46            9.6230     6.2317    -1.0681 H       
  47 H47           10.1360     8.1952    -2.3874 H       
  48 H48            8.7627     8.9623    -1.5536 H       
  49 H49           11.8940     7.3625     0.7159 H       
  50 H50           11.9676     7.2595    -1.0599 H       
  51 H51           12.0785     9.8230     0.5943 H       
  52 H52           13.4518     9.0559    -0.2395 H       
  53 H53           10.3205    10.6558    -2.5091 H       
  54 H54           10.2469    10.7588    -0.7332 H       
  55 H55           11.9107    11.9461     0.1946 H       
  56 H56           14.6350    14.4475    -1.9276 H       
  57 H57           13.1392    14.0682    -0.0108 H       
@<TRIPOS>BOND
   1    1    2 ar
   2    1    6 ar
   3    1   32 1
   4    2    3 ar
   5    2   33 1
   6    3    4 ar
   7    3   34 1
   8    4    5 ar
   9    4   35 1
  10    5    6 ar
  11    5    7 1
  12    6    9 1
  13    7    8 1
  14    7   36 1
  15    8    9 2
  16    8   10 1
  17    9   37 1
  18   10   11 2
  19   10   12 am
  20   12   13 1
  21   12   38 1
  22   13   14 1
  23   13   39 1
  24   13   40 1
  25   14   15 1
  26   14   41 1
  27   14   42 1
  28   15   16 1
  29   15   17 1
  30   15   43 1
  31   16   44 1
  32   17   18 1
  33   17   45 1
  34   17   46 1
  35   18   19 1
  36   18   20 1
  37   19   23 1
  38   19   47 1
  39   19   48 1
  40   20   21 1
  41   20   49 1
  42   20   50 1
  43   21   22 1
  44   21   51 1
  45   21   52 1
  46   22   23 1
  47   22   24 1
  48   23   53 1
  49   23   54 1
  50   24   25 ar
  51   24   26 ar
  52   25   29 ar
  53   25   55 1
  54   26   27 ar
  55   26   30 1
  56   27   28 ar
  57   27   31 1
  58   28   29 ar
  59   28   56 1
  60   29   57 1

#	End of record

