#	Name: ASD01142007
#	Creating user name:	WinNT
#	Creation time:	15. 06. 2019 19:01

#	Modifying user name:	WinNT
#	Modification time:	15. 06. 2019 19:01

#	Program:	/corina/corina34_cracker 3.40 0067  02.08.2006

@<TRIPOS>MOLECULE
ASD01142007
  45   47    0    0    0
SMALL
NO_CHARGES


@<TRIPOS>ATOM
   1 C1             0.0941     0.8944     1.0478 C.ar    
   2 C2             0.3008    -0.4780     1.0183 C.ar    
   3 C3             1.5301    -1.0026     0.6494 C.ar    
   4 C4             2.5803    -0.1248     0.3008 C.ar    
   5 C5             2.3483     1.2711     0.3376 C.ar    
   6 C6             1.0942     1.7628     0.7150 C.ar    
   7 C7             1.7400    -2.4681     0.6218 C.ar    
   8 N8             0.7383    -3.2725     0.9539 N.ar    
   9 C9             0.8928    -4.5850     0.9392 C.ar    
  10 C10            2.1193    -5.1182     0.5710 C.ar    
  11 C11            3.1451    -4.2491     0.2297 C.ar    
  12 N12            2.9237    -2.9464     0.2602 N.ar    
  13 N13            3.7844    -0.5835    -0.0613 N.ar    
  14 N14            4.7459     0.2051    -0.3798 N.ar    
  15 C15            4.6309     1.5343    -0.3777 C.ar    
  16 C16            3.4159     2.1339    -0.0162 C.ar    
  17 N17            3.2663     3.5030    -0.0048 N.pl3   
  18 C18            5.7821     2.3734    -0.7558 C.2     
  19 N19            6.9808     1.8052    -0.9940 N.am    
  20 O20            5.6504     3.5785    -0.8528 O.2     
  21 C21            8.1251     2.6393    -1.3699 C.3     
  22 C22            9.3543     1.7532    -1.5815 C.3     
  23 C23           10.5494     2.6243    -1.9740 C.3     
  24 C24           11.7786     1.7383    -2.1856 C.3     
  25 C25           12.9737     2.6093    -2.5781 C.3     
  26 H26           -0.8730     1.2809     1.3338 H       
  27 H27           -0.5054    -1.1449     1.2861 H       
  28 H28            0.9170     2.8278     0.7427 H       
  29 H29            0.0739    -5.2347     1.2109 H       
  30 H30            2.2723    -6.1871     0.5508 H       
  31 H31            4.1119    -4.6324    -0.0615 H       
  32 H32            4.0470     4.0757     0.0528 H       
  33 H33            2.3802     3.8945    -0.0545 H       
  34 H34            7.0859     0.8440    -0.9167 H       
  35 H35            7.8983     3.1726    -2.2930 H       
  36 H36            8.3274     3.3577    -0.5755 H       
  37 H37            9.5811     1.2200    -0.6583 H       
  38 H38            9.1520     1.0348    -2.3758 H       
  39 H39           10.3226     3.1576    -2.8971 H       
  40 H40           10.7517     3.3428    -1.1796 H       
  41 H41           12.0054     1.2050    -1.2624 H       
  42 H42           11.5763     1.0198    -2.9799 H       
  43 H43           13.8494     1.9781    -2.7288 H       
  44 H44           12.7469     3.1426    -3.5013 H       
  45 H45           13.1760     3.3278    -1.7837 H       
@<TRIPOS>BOND
   1    1    2 ar
   2    1    6 ar
   3    1   26 1
   4    2    3 ar
   5    2   27 1
   6    3    4 ar
   7    3    7 1
   8    4    5 ar
   9    4   13 ar
  10    5    6 ar
  11    5   16 ar
  12    6   28 1
  13    7    8 ar
  14    7   12 ar
  15    8    9 ar
  16    9   10 ar
  17    9   29 1
  18   10   11 ar
  19   10   30 1
  20   11   12 ar
  21   11   31 1
  22   13   14 ar
  23   14   15 ar
  24   15   16 ar
  25   15   18 1
  26   16   17 1
  27   17   32 1
  28   17   33 1
  29   18   19 am
  30   18   20 2
  31   19   21 1
  32   19   34 1
  33   21   22 1
  34   21   35 1
  35   21   36 1
  36   22   23 1
  37   22   37 1
  38   22   38 1
  39   23   24 1
  40   23   39 1
  41   23   40 1
  42   24   25 1
  43   24   41 1
  44   24   42 1
  45   25   43 1
  46   25   44 1
  47   25   45 1

#	End of record

