#	Name: ASD01901182
#	Creating user name:	WinNT
#	Creation time:	15. 06. 2019 19:53

#	Modifying user name:	WinNT
#	Modification time:	15. 06. 2019 19:53

#	Program:	/corina/corina34_cracker 3.40 0067  02.08.2006

@<TRIPOS>MOLECULE
ASD01901182
  54   57    0    0    0
SMALL
NO_CHARGES


@<TRIPOS>ATOM
   1 C1            -0.9202     1.6471     1.7528 C.ar    
   2 N2            -1.0088     0.3467     1.9375 N.ar    
   3 C3             0.0576    -0.4303     1.9480 C.ar    
   4 C4             1.3250     0.0925     1.7638 C.ar    
   5 C5             1.4743     1.4536     1.5654 C.ar    
   6 C6             0.3239     2.2537     1.5594 C.ar    
   7 C7             0.4213     3.6681     1.3579 C.1     
   8 C8             0.5012     4.8277     1.1928 C.1     
   9 C9             0.5986     6.2421     0.9914 C.ar    
  10 C10            1.8484     6.8379     0.7989 C.ar    
  11 C11            1.9385     8.2012     0.6052 C.ar    
  12 C12            0.7874     8.9826     0.6017 C.ar    
  13 C13           -0.4581     8.3930     0.7929 C.ar    
  14 C14           -0.5563     7.0295     0.9811 C.ar    
  15 N15            0.8829    10.3680     0.4054 N.am    
  16 C16            0.8253    10.8651    -0.8413 C.2     
  17 N17            1.1461    12.1422    -1.1048 N.am    
  18 C18            1.6908    13.0120    -0.0606 C.3     
  19 C19            1.0332    12.6755     1.2797 C.3     
  20 C20            1.0254    11.1798     1.4690 C.2     
  21 O21            0.4747    10.1415    -1.7528 O.2     
  22 O22            1.1511    10.7086     2.5790 O.2     
  23 C23            0.9488    12.6724    -2.4561 C.3     
  24 C24            3.2015    12.7930     0.0435 C.3     
  25 C25            1.4152    14.4524    -0.4076 C.ar    
  26 F26            3.1460     8.7779     0.4191 F       
  27 C27            0.1416    14.8428    -0.7769 C.ar    
  28 C28            2.4347    15.3843    -0.3511 C.ar    
  29 C29            2.1818    16.7055    -0.6694 C.ar    
  30 C30            0.9096    17.0948    -1.0447 C.ar    
  31 C31           -0.1113    16.1641    -1.0952 C.ar    
  32 F32           -1.5733     9.1557     0.7892 F       
  33 C33            3.8427    13.0001    -1.3301 C.3     
  34 H34           -1.8165     2.2495     1.7462 H       
  35 H35           -0.0610    -1.4925     2.1033 H       
  36 H36            2.1892    -0.5551     1.7751 H       
  37 H37            2.4522     1.8882     1.4195 H       
  38 H38            2.7424     6.2320     0.8022 H       
  39 H39           -1.5239     6.5718     1.1250 H       
  40 H40            1.5944    13.1437     2.0884 H       
  41 H41            0.0078    13.0452     1.2853 H       
  42 H42            0.6298    11.8681    -3.1190 H       
  43 H43            0.1846    13.4494    -2.4336 H       
  44 H44            1.8852    13.0943    -2.8212 H       
  45 H45            3.6238    13.5050     0.7527 H       
  46 H46            3.3986    11.7776     0.3872 H       
  47 H47           -0.6558    14.1156    -0.8171 H       
  48 H48            3.4286    15.0801    -0.0579 H       
  49 H49            2.9782    17.4337    -0.6246 H       
  50 H50            0.7120    18.1271    -1.2930 H       
  51 H51           -1.1062    16.4690    -1.3840 H       
  52 H52            3.3776    12.3298    -2.0529 H       
  53 H53            3.6978    14.0330    -1.6468 H       
  54 H54            4.9096    12.7850    -1.2692 H       
@<TRIPOS>BOND
   1    1    2 ar
   2    1    6 ar
   3    1   34 1
   4    2    3 ar
   5    3    4 ar
   6    3   35 1
   7    4    5 ar
   8    4   36 1
   9    5    6 ar
  10    5   37 1
  11    6    7 1
  12    7    8 3
  13    8    9 1
  14    9   10 ar
  15    9   14 ar
  16   10   11 ar
  17   10   38 1
  18   11   12 ar
  19   11   26 1
  20   12   13 ar
  21   12   15 1
  22   13   14 ar
  23   13   32 1
  24   14   39 1
  25   15   16 am
  26   15   20 am
  27   16   17 am
  28   16   21 2
  29   17   23 1
  30   17   18 1
  31   18   19 1
  32   18   24 1
  33   18   25 1
  34   19   20 1
  35   19   40 1
  36   19   41 1
  37   20   22 2
  38   23   42 1
  39   23   43 1
  40   23   44 1
  41   24   33 1
  42   24   45 1
  43   24   46 1
  44   25   28 ar
  45   25   27 ar
  46   27   31 ar
  47   27   47 1
  48   28   29 ar
  49   28   48 1
  50   29   30 ar
  51   29   49 1
  52   30   31 ar
  53   30   50 1
  54   31   51 1
  55   33   52 1
  56   33   53 1
  57   33   54 1

#	End of record

