#	Name: ASD03092419
#	Creating user name:	WinNT
#	Creation time:	15. 06. 2019 20:32

#	Modifying user name:	WinNT
#	Modification time:	15. 06. 2019 20:32

#	Program:	/corina/corina34_cracker 3.40 0067  02.08.2006

@<TRIPOS>MOLECULE
ASD03092419
  56   59    0    0    0
SMALL
NO_CHARGES


@<TRIPOS>ATOM
   1 C1             0.3408     1.9914     0.1457 C.2     
   2 C2             0.5547     0.5306     0.2250 C.ar    
   3 C3             1.8503     0.0118     0.2369 C.ar    
   4 C4             2.0429    -1.3544     0.3110 C.ar    
   5 C5             0.9524    -2.2075     0.3734 C.ar    
   6 C6            -0.3331    -1.6976     0.3619 C.ar    
   7 C7            -0.5380    -0.3347     0.2939 C.ar    
   8 O8             1.2944     2.7432     0.0908 O.2     
   9 N9            -0.9116     2.4892     0.1288 N.am    
  10 F10            3.2959    -1.8594     0.3222 F       
  11 C11           -1.1235     3.9366     0.0503 C.3     
  12 S12           -4.9829     4.7258    -0.6383 S.3     
  13 C13           -4.5796     4.5792     1.0163 C.2     
  14 N14           -3.3137     4.3240     1.1505 N.2     
  15 C15           -2.6020     4.2284     0.0468 C.2     
  16 C16           -3.3080     4.4136    -1.0867 C.2     
  17 C17           -3.0728     5.3727    -3.3793 C.ar    
  18 C18           -2.7716     4.3635    -2.4628 C.ar    
  19 C19           -1.9524     3.3037    -2.8693 C.ar    
  20 C20           -1.4756     3.3043    -4.1684 C.ar    
  21 C21           -1.8201     4.3418    -5.0157 C.ar    
  22 N22           -2.5943     5.3282    -4.6053 N.ar    
  23 C23           -1.3023     4.3460    -6.4309 C.3     
  24 N24           -5.4748     4.7133     2.0634 N.3     
  25 C25           -6.8282     4.9998     1.5661 C.3     
  26 C26           -7.7715     5.1992     2.7554 C.3     
  27 O27           -7.7350     4.0359     3.5866 O.3     
  28 C28           -6.4319     3.7279     4.0890 C.3     
  29 C29           -5.4751     3.5136     2.9132 C.3     
  30 C30           -6.4978     2.4534     4.9329 C.3     
  31 C31           -9.1973     5.4183     2.2455 C.3     
  32 H32            2.7001     0.6765     0.1879 H       
  33 H33            1.1071    -3.2748     0.4309 H       
  34 H34           -1.1787    -2.3676     0.4108 H       
  35 H35           -1.5427     0.0615     0.2895 H       
  36 H36           -1.6726     1.8890     0.1686 H       
  37 H37           -0.6600     4.4189     0.9110 H       
  38 H38           -0.6753     4.3203    -0.8662 H       
  39 H39           -3.7072     6.1945    -3.0817 H       
  40 H40           -1.6987     2.5063    -2.1865 H       
  41 H41           -0.8407     2.5032    -4.5170 H       
  42 H42           -2.0068     3.8224    -7.0772 H       
  43 H43           -1.1901     5.3745    -6.7738 H       
  44 H44           -0.3354     3.8439    -6.4655 H       
  45 H45           -6.8093     5.9060     0.9607 H       
  46 H46           -7.1780     4.1638     0.9604 H       
  47 H47           -7.4526     6.0681     3.3312 H       
  48 H48           -6.0741     4.5540     4.7035 H       
  49 H49           -5.8032     2.6539     2.3290 H       
  50 H50           -4.4684     3.3349     3.2910 H       
  51 H51           -6.8539     1.6277     4.3168 H       
  52 H52           -5.5044     2.2192     5.3154 H       
  53 H53           -7.1821     2.6053     5.7676 H       
  54 H54           -9.5157     4.5480     1.6716 H       
  55 H55           -9.8683     5.5602     3.0927 H       
  56 H56           -9.2236     6.3027     1.6090 H       
@<TRIPOS>BOND
   1    1    2 1
   2    1    8 2
   3    1    9 am
   4    2    3 ar
   5    2    7 ar
   6    3    4 ar
   7    3   32 1
   8    4    5 ar
   9    4   10 1
  10    5    6 ar
  11    5   33 1
  12    6    7 ar
  13    6   34 1
  14    7   35 1
  15    9   11 1
  16    9   36 1
  17   11   15 1
  18   11   37 1
  19   11   38 1
  20   12   13 1
  21   12   16 1
  22   13   14 2
  23   13   24 1
  24   14   15 1
  25   15   16 2
  26   16   18 1
  27   17   18 ar
  28   17   22 ar
  29   17   39 1
  30   18   19 ar
  31   19   20 ar
  32   19   40 1
  33   20   21 ar
  34   20   41 1
  35   21   22 ar
  36   21   23 1
  37   23   42 1
  38   23   43 1
  39   23   44 1
  40   24   25 1
  41   24   29 1
  42   25   26 1
  43   25   45 1
  44   25   46 1
  45   26   27 1
  46   26   31 1
  47   26   47 1
  48   27   28 1
  49   28   29 1
  50   28   30 1
  51   28   48 1
  52   29   49 1
  53   29   50 1
  54   30   51 1
  55   30   52 1
  56   30   53 1
  57   31   54 1
  58   31   55 1
  59   31   56 1

#	End of record

