#	Name: ASD03092378
#	Creating user name:	WinNT
#	Creation time:	15. 06. 2019 20:32

#	Modifying user name:	WinNT
#	Modification time:	15. 06. 2019 20:32

#	Program:	/corina/corina34_cracker 3.40 0067  02.08.2006

@<TRIPOS>MOLECULE
ASD03092378
  60   63    0    0    0
SMALL
NO_CHARGES


@<TRIPOS>ATOM
   1 C1            -0.1121     1.2347    -0.7230 C.3     
   2 C2            -0.1592    -0.2897    -0.9207 C.3     
   3 C3             1.2705    -0.3281    -0.3553 C.3     
   4 C4             1.4172     1.1237    -0.8406 C.3     
   5 C5            -0.7495     2.0092    -1.8476 C.2     
   6 O6            -1.2353     1.4206    -2.7902 O.2     
   7 N7            -0.7797     3.3560    -1.8060 N.am    
   8 C8            -1.3993     4.1090    -2.8993 C.3     
   9 S9            -1.7702     7.9588    -1.8801 S.3     
  10 C10           -0.2747     7.5645    -2.6084 C.2     
  11 N11           -0.2381     6.3006    -2.9066 N.2     
  12 C12           -1.3016     5.5850    -2.6112 C.2     
  13 C13           -2.2976     6.2844    -2.0286 C.2     
  14 C14           -4.9146     4.0974    -0.4454 C.ar    
  15 C15           -3.6712     4.5699    -0.8327 C.ar    
  16 C16           -3.5994     5.7422    -1.5924 C.ar    
  17 C17           -4.7981     6.3889    -1.9281 C.ar    
  18 C18           -5.9914     5.8512    -1.5016 C.ar    
  19 N19           -6.0200     4.7414    -0.7856 N.ar    
  20 C20           -7.2845     6.5386    -1.8572 C.3     
  21 O21           -5.0006     2.9583     0.2870 O.3     
  22 C22           -6.3103     2.5217     0.6561 C.3     
  23 N23            0.7495     8.4628    -2.8469 N.3     
  24 C24            0.3845     9.8115    -2.3894 C.3     
  25 C25            1.5189    10.7830    -2.7258 C.3     
  26 O26            2.7315    10.3178    -2.1270 O.3     
  27 C27            3.1171     9.0074    -2.5507 C.3     
  28 C28            1.9988     8.0179    -2.2125 C.3     
  29 C29            4.4008     8.5940    -1.8283 C.3     
  30 C30            1.1803    12.1721    -2.1812 C.3     
  31 H31           -0.4520     1.5581     0.2609 H       
  32 H32           -0.8925    -0.7896    -0.2879 H       
  33 H33           -0.2237    -0.5926    -1.9657 H       
  34 H34            1.3085    -0.4320     0.7290 H       
  35 H35            1.9256    -1.0295    -0.8720 H       
  36 H36            1.7836     1.2071    -1.8638 H       
  37 H37            1.9564     1.7648    -0.1433 H       
  38 H38           -0.3911     3.8267    -1.0521 H       
  39 H39           -0.8824     3.8859    -3.8327 H       
  40 H40           -2.4478     3.8247    -2.9877 H       
  41 H41           -2.7719     4.0416    -0.5527 H       
  42 H42           -4.7849     7.2967    -2.5131 H       
  43 H43           -7.6543     6.1489    -2.8056 H       
  44 H44           -8.0215     6.3529    -1.0759 H       
  45 H45           -7.1129     7.6113    -1.9473 H       
  46 H46           -6.2366     1.6025     1.2372 H       
  47 H47           -6.7948     3.2926     1.2554 H       
  48 H48           -6.8985     2.3371    -0.2428 H       
  49 H49           -0.5291    10.1311    -2.8908 H       
  50 H50            0.2236     9.7990    -1.3115 H       
  51 H51            1.6441    10.8360    -3.8073 H       
  52 H52            3.2887     9.0088    -3.6271 H       
  53 H53            1.8637     7.9768    -1.1317 H       
  54 H54            2.2637     7.0283    -2.5848 H       
  55 H55            4.2274     8.5912    -0.7522 H       
  56 H56            4.6942     7.5953    -2.1516 H       
  57 H57            5.1955     9.3010    -2.0664 H       
  58 H58            1.0573    12.1182    -1.0995 H       
  59 H59            1.9882    12.8633    -2.4210 H       
  60 H60            0.2540    12.5244    -2.6351 H       
@<TRIPOS>BOND
   1    1    2 1
   2    1    4 1
   3    1    5 1
   4    1   31 1
   5    2    3 1
   6    2   32 1
   7    2   33 1
   8    3    4 1
   9    3   34 1
  10    3   35 1
  11    4   36 1
  12    4   37 1
  13    5    6 2
  14    5    7 am
  15    7    8 1
  16    7   38 1
  17    8   12 1
  18    8   39 1
  19    8   40 1
  20    9   10 1
  21    9   13 1
  22   10   11 2
  23   10   23 1
  24   11   12 1
  25   12   13 2
  26   13   16 1
  27   14   15 ar
  28   14   19 ar
  29   14   21 1
  30   15   16 ar
  31   15   41 1
  32   16   17 ar
  33   17   18 ar
  34   17   42 1
  35   18   19 ar
  36   18   20 1
  37   20   43 1
  38   20   44 1
  39   20   45 1
  40   21   22 1
  41   22   46 1
  42   22   47 1
  43   22   48 1
  44   23   24 1
  45   23   28 1
  46   24   25 1
  47   24   49 1
  48   24   50 1
  49   25   26 1
  50   25   30 1
  51   25   51 1
  52   26   27 1
  53   27   28 1
  54   27   29 1
  55   27   52 1
  56   28   53 1
  57   28   54 1
  58   29   55 1
  59   29   56 1
  60   29   57 1
  61   30   58 1
  62   30   59 1
  63   30   60 1

#	End of record

