#	Name: ASD02030639
#	Creating user name:	WinNT
#	Creation time:	15. 06. 2019 20:15

#	Modifying user name:	WinNT
#	Modification time:	15. 06. 2019 20:15

#	Program:	/corina/corina34_cracker 3.40 0067  02.08.2006

@<TRIPOS>MOLECULE
ASD02030639
  61   64    0    0    0
SMALL
NO_CHARGES


@<TRIPOS>ATOM
   1 C1            -0.0278     1.3811     0.0120 C.ar    
   2 C2            -0.0153     0.0026     0.0107 C.ar    
   3 C3             1.1966    -0.6732     0.0053 C.ar    
   4 C4             2.3811     0.0427     0.0070 C.ar    
   5 C5             2.3663     1.4316     0.0148 C.ar    
   6 C6             1.1614     2.0985     0.0082 C.ar    
   7 C7             1.0734     3.6040    -0.0174 C.3     
   8 C8             3.6935     2.1429     0.0453 C.3     
   9 C9             3.5487     3.5856    -0.4362 C.3     
  10 N10            2.3941     4.1809     0.2551 N.am    
  11 C11            0.5922     4.0625    -1.3955 C.3     
  12 O12            1.4506     3.5242    -2.4032 O.3     
  13 C13            1.1599     3.8380    -3.6940 C.ar    
  14 C14            2.5447     5.2155     1.1057 C.2     
  15 O15            3.6576     5.6229     1.3761 O.2     
  16 C16            1.3564     5.8548     1.7098 C.ar    
  17 C17            0.5678     4.4766    -6.3217 C.ar    
  18 C18           -0.2209     4.9707    -5.2934 C.ar    
  19 C19            0.0744     4.6518    -3.9822 C.ar    
  20 C20            1.9523     3.3490    -4.7219 C.ar    
  21 C21            1.6570     3.6678    -6.0331 C.ar    
  22 C22            1.4125     6.3458     3.0147 C.ar    
  23 C23            0.1755     5.9748     0.9751 C.ar    
  24 C24           -0.9304     6.5722     1.5434 C.ar    
  25 C25           -0.8723     7.0525     2.8394 C.ar    
  26 C26            0.2978     6.9423     3.5732 C.ar    
  27 O27            0.2771     4.7905    -7.6125 O.3     
  28 C28            1.1316     4.2468    -8.6206 C.3     
  29 F29            0.3492     7.4185     4.8365 F       
  30 C30            0.6510     4.7061    -9.9986 C.3     
  31 O31            1.2204    -2.0319    -0.0012 O.3     
  32 C32           -0.0413    -2.7029    -0.0021 C.3     
  33 C33            0.1856    -4.2159    -0.0097 C.3     
  34 H34           -0.9706     1.9079     0.0115 H       
  35 H35           -0.9441    -0.5486     0.0143 H       
  36 H36            3.3246    -0.4828     0.0027 H       
  37 H37            0.3675     3.9390     0.7425 H       
  38 H38            4.0772     2.1422     1.0655 H       
  39 H39            4.3964     1.6179    -0.6016 H       
  40 H40            4.4519     4.1467    -0.1964 H       
  41 H41            3.3800     3.5997    -1.5129 H       
  42 H42           -0.4264     3.7109    -1.5602 H       
  43 H43            0.6131     5.1512    -1.4440 H       
  44 H44           -1.0691     5.6004    -5.5181 H       
  45 H45           -0.5403     5.0359    -3.1815 H       
  46 H46            2.8004     2.7193    -4.4972 H       
  47 H47            2.2711     3.2831    -6.8338 H       
  48 H48            2.3244     6.2596     3.5869 H       
  49 H49            0.1280     5.6009    -0.0370 H       
  50 H50           -1.8439     6.6654     0.9749 H       
  51 H51           -1.7411     7.5192     3.2795 H       
  52 H52            2.1521     4.5934    -8.4576 H       
  53 H53            1.1053     3.1582    -8.5709 H       
  54 H54           -0.3695     4.3595   -10.1617 H       
  55 H55            0.6773     5.7946   -10.0484 H       
  56 H56            1.3028     4.2914   -10.7676 H       
  57 H57           -0.6018    -2.4240     0.8902 H       
  58 H58           -0.6050    -2.4155    -0.8897 H       
  59 H59            0.7460    -4.4948    -0.9020 H       
  60 H60            0.7493    -4.5032     0.8779 H       
  61 H61           -0.7768    -4.7277    -0.0104 H       
@<TRIPOS>BOND
   1    1    2 ar
   2    1    6 ar
   3    1   34 1
   4    2    3 ar
   5    2   35 1
   6    3    4 ar
   7    3   31 1
   8    4    5 ar
   9    4   36 1
  10    5    6 ar
  11    5    8 1
  12    6    7 1
  13    7   10 1
  14    7   11 1
  15    7   37 1
  16    8    9 1
  17    8   38 1
  18    8   39 1
  19    9   10 1
  20    9   40 1
  21    9   41 1
  22   10   14 am
  23   11   12 1
  24   11   42 1
  25   11   43 1
  26   12   13 1
  27   13   20 ar
  28   13   19 ar
  29   14   15 2
  30   14   16 1
  31   16   23 ar
  32   16   22 ar
  33   17   18 ar
  34   17   21 ar
  35   17   27 1
  36   18   19 ar
  37   18   44 1
  38   19   45 1
  39   20   21 ar
  40   20   46 1
  41   21   47 1
  42   22   26 ar
  43   22   48 1
  44   23   24 ar
  45   23   49 1
  46   24   25 ar
  47   24   50 1
  48   25   26 ar
  49   25   51 1
  50   26   29 1
  51   27   28 1
  52   28   30 1
  53   28   52 1
  54   28   53 1
  55   30   54 1
  56   30   55 1
  57   30   56 1
  58   31   32 1
  59   32   33 1
  60   32   57 1
  61   32   58 1
  62   33   59 1
  63   33   60 1
  64   33   61 1

#	End of record

