#	Name: ASD06660231
#	Creating user name:	WinNT
#	Creation time:	15. 06. 2019 21:08

#	Modifying user name:	WinNT
#	Modification time:	15. 06. 2019 21:08

#	Program:	/corina/corina34_cracker 3.40 0067  02.08.2006

@<TRIPOS>MOLECULE
ASD06660231
  71   75    0    0    0
SMALL
NO_CHARGES


@<TRIPOS>ATOM
   1 C1            -0.0184     1.5028     0.0103 C.2     
   2 C2             0.0021    -0.0041     0.0020 C.3     
   3 C3            -0.7241    -0.5171    -1.2431 C.3     
   4 O4             1.0197     2.1211     0.0037 O.2     
   5 O5            -1.1898     2.1580     0.0194 O.3     
   6 N6             1.3897    -0.4735    -0.0138 N.am    
   7 C7             2.2001    -0.1291    -1.0312 C.2     
   8 C8             3.6238    -0.6146    -1.0797 C.3     
   9 C9             4.1978    -0.6868     0.3356 C.3     
  10 C10            3.2294    -1.4091     1.2357 C.ar    
  11 C11            3.6974    -2.2015     2.2653 C.ar    
  12 C12            2.8057    -2.8628     3.0897 C.ar    
  13 C13            1.4439    -2.7333     2.8858 C.ar    
  14 C14            0.9699    -1.9423     1.8577 C.ar    
  15 C15            1.8645    -1.2718     1.0314 C.ar    
  16 O16            1.7783     0.5806    -1.9197 O.2     
  17 C17           -0.8113    -2.0207    -1.1900 C.ar    
  18 C18           -1.8983    -2.6278    -0.5884 C.ar    
  19 C19           -1.9814    -4.0054    -0.5380 C.ar    
  20 C20           -0.9713    -4.7813    -1.0925 C.ar    
  21 C21            0.1192    -4.1682    -1.6960 C.ar    
  22 C22            0.1932    -2.7901    -1.7480 C.ar    
  23 N23           -1.0519    -6.1748    -1.0428 N.3     
  24 C24            0.1154    -6.7927    -1.6847 C.3     
  25 C25           -0.0755    -8.3100    -1.7414 C.3     
  26 C26           -0.2456    -8.8516    -0.3193 C.3     
  27 C27           -1.4383    -8.1570     0.3437 C.3     
  28 C28           -1.2079    -6.6440     0.3399 C.3     
  29 C29           -0.4975   -10.3598    -0.3732 C.3     
  30 N30           -0.5413   -10.8966     0.9892 N.pl3   
  31 C31           -0.7596   -12.2539     1.1947 C.ar    
  32 C32           -0.9358   -13.0971     0.1020 C.ar    
  33 C33           -1.1521   -14.4454     0.3210 C.ar    
  34 C34           -1.1853   -14.9073     1.6304 C.ar    
  35 C35           -1.0027   -14.0145     2.6670 C.ar    
  36 N36           -0.7927   -12.7337     2.4282 N.ar    
  37 C37           -1.3481   -15.3920    -0.8351 C.3     
  38 H38           -0.4983    -0.3791     0.8948 H       
  39 H39           -1.7288    -0.0959    -1.2772 H       
  40 H40           -0.1736    -0.2164    -2.1345 H       
  41 H41           -1.1523     3.1243     0.0245 H       
  42 H42            3.6532    -1.6053    -1.5333 H       
  43 H43            4.2209     0.0738    -1.6778 H       
  44 H44            5.1458    -1.2245     0.3161 H       
  45 H45            4.3609     0.3226     0.7133 H       
  46 H46            4.7603    -2.3051     2.4264 H       
  47 H47            3.1735    -3.4820     3.8945 H       
  48 H48            0.7503    -3.2518     3.5311 H       
  49 H49           -0.0936    -1.8419     1.6987 H       
  50 H50           -2.6831    -2.0240    -0.1572 H       
  51 H51           -2.8305    -4.4790    -0.0677 H       
  52 H52            0.9062    -4.7685    -2.1281 H       
  53 H53            1.0385    -2.3127    -2.2213 H       
  54 H54            0.2226    -6.4021    -2.6967 H       
  55 H55            1.0115    -6.5606    -1.1092 H       
  56 H56           -0.9638    -8.5434    -2.3284 H       
  57 H57            0.7981    -8.7697    -2.2037 H       
  58 H58            0.6581    -8.6527     0.2568 H       
  59 H59           -2.3480    -8.3879    -0.2105 H       
  60 H60           -1.5385    -8.5072     1.3710 H       
  61 H61           -0.3056    -6.4127     0.9059 H       
  62 H62           -2.0619    -6.1455     0.7984 H       
  63 H63           -1.4485   -10.5517    -0.8701 H       
  64 H64            0.3065   -10.8428    -0.9284 H       
  65 H65           -0.4180   -10.3049     1.7478 H       
  66 H66           -0.9043   -12.7040    -0.9034 H       
  67 H67           -1.3525   -15.9544     1.8353 H       
  68 H68           -1.0277   -14.3695     3.6867 H       
  69 H69           -0.3820   -15.7884    -1.1479 H       
  70 H70           -1.9951   -16.2132    -0.5267 H       
  71 H71           -1.8087   -14.8592    -1.6669 H       
@<TRIPOS>BOND
   1    1    2 1
   2    1    4 2
   3    1    5 1
   4    2    3 1
   5    2    6 1
   6    2   38 1
   7    3   17 1
   8    3   39 1
   9    3   40 1
  10    5   41 1
  11    6    7 am
  12    6   15 1
  13    7    8 1
  14    7   16 2
  15    8    9 1
  16    8   42 1
  17    8   43 1
  18    9   10 1
  19    9   44 1
  20    9   45 1
  21   10   11 ar
  22   10   15 ar
  23   11   12 ar
  24   11   46 1
  25   12   13 ar
  26   12   47 1
  27   13   14 ar
  28   13   48 1
  29   14   15 ar
  30   14   49 1
  31   17   18 ar
  32   17   22 ar
  33   18   19 ar
  34   18   50 1
  35   19   20 ar
  36   19   51 1
  37   20   21 ar
  38   20   23 1
  39   21   22 ar
  40   21   52 1
  41   22   53 1
  42   23   24 1
  43   23   28 1
  44   24   25 1
  45   24   54 1
  46   24   55 1
  47   25   26 1
  48   25   56 1
  49   25   57 1
  50   26   27 1
  51   26   29 1
  52   26   58 1
  53   27   28 1
  54   27   59 1
  55   27   60 1
  56   28   61 1
  57   28   62 1
  58   29   30 1
  59   29   63 1
  60   29   64 1
  61   30   31 1
  62   30   65 1
  63   31   32 ar
  64   31   36 ar
  65   32   33 ar
  66   32   66 1
  67   33   34 ar
  68   33   37 1
  69   34   35 ar
  70   34   67 1
  71   35   36 ar
  72   35   68 1
  73   37   69 1
  74   37   70 1
  75   37   71 1

#	End of record

