#	Name: ASD01918508
#	Creating user name:	WinNT
#	Creation time:	15. 06. 2019 20:11

#	Modifying user name:	WinNT
#	Modification time:	15. 06. 2019 20:11

#	Program:	/corina/corina34_cracker 3.40 0067  02.08.2006

@<TRIPOS>MOLECULE
ASD01918508
  41   44    0    0    0
SMALL
NO_CHARGES


@<TRIPOS>ATOM
   1 C1            -1.2245     1.1920    -0.1817 C.3     
   2 C2            -0.5543    -0.1547    -0.0911 C.ar    
   3 C3             0.0675    -0.6919    -1.2036 C.ar    
   4 C4             0.6865    -1.9296    -1.1284 C.ar    
   5 F5             1.2924    -2.4481    -2.2189 F       
   6 C6             0.6852    -2.6338     0.0604 C.ar    
   7 C7             0.0589    -2.0954     1.1854 C.ar    
   8 C8            -0.5577    -0.8461     1.1030 C.ar    
   9 C9             0.0530    -2.8433     2.4608 C.2     
  10 O10            0.1235    -2.2450     3.5166 O.2     
  11 N11           -0.0305    -4.1884     2.4528 N.am    
  12 C12            0.0872    -4.9581     3.7003 C.3     
  13 C13           -1.2403    -5.6761     3.9744 C.3     
  14 C14           -1.7219    -6.3123     2.6960 C.2     
  15 O15           -2.6339    -7.2849     2.5501 O.3     
  16 C16           -2.7525    -7.5368     1.2325 C.2     
  17 N17           -1.9341    -6.7429     0.5779 N.2     
  18 C18           -1.2874    -5.9809     1.4613 C.2     
  19 C19           -0.2483    -4.9241     1.1942 C.3     
  20 C20           -3.6529    -8.5386     0.6237 C.ar    
  21 C21           -3.6713    -8.7005    -0.7617 C.ar    
  22 C22           -4.5191    -9.6421    -1.3177 C.ar    
  23 C23           -5.3234   -10.3934    -0.4693 C.ar    
  24 F24           -6.1645   -11.3231    -0.9726 F       
  25 C25           -5.2537   -10.1797     0.8987 C.ar    
  26 N26           -4.4337    -9.2807     1.4011 N.ar    
  27 H27           -0.5048     1.9732     0.0633 H       
  28 H28           -1.5964     1.3453    -1.1947 H       
  29 H29           -2.0569     1.2316     0.5209 H       
  30 H30            0.0704    -0.1448    -2.1347 H       
  31 H31            1.1673    -3.5985     0.1188 H       
  32 H32           -1.0399    -0.4227     1.9717 H       
  33 H33            0.8856    -5.6935     3.6008 H       
  34 H34            0.3133    -4.2825     4.5253 H       
  35 H35           -1.0897    -6.4459     4.7313 H       
  36 H36           -1.9795    -4.9559     4.3251 H       
  37 H37           -0.6042    -4.2416     0.4224 H       
  38 H38            0.6812    -5.3950     0.8742 H       
  39 H39           -3.0327    -8.0990    -1.3917 H       
  40 H40           -4.5553    -9.7895    -2.3870 H       
  41 H41           -5.8774   -10.7614     1.5613 H       
@<TRIPOS>BOND
   1    1    2 1
   2    1   27 1
   3    1   28 1
   4    1   29 1
   5    2    8 ar
   6    2    3 ar
   7    3    4 ar
   8    3   30 1
   9    4    5 1
  10    4    6 ar
  11    6    7 ar
  12    6   31 1
  13    7    8 ar
  14    7    9 1
  15    8   32 1
  16    9   10 2
  17    9   11 am
  18   11   19 1
  19   11   12 1
  20   12   13 1
  21   12   33 1
  22   12   34 1
  23   13   14 1
  24   13   35 1
  25   13   36 1
  26   14   18 2
  27   14   15 1
  28   15   16 1
  29   16   17 2
  30   16   20 1
  31   17   18 1
  32   18   19 1
  33   19   37 1
  34   19   38 1
  35   20   26 ar
  36   20   21 ar
  37   21   22 ar
  38   21   39 1
  39   22   23 ar
  40   22   40 1
  41   23   24 1
  42   23   25 ar
  43   25   26 ar
  44   25   41 1

#	End of record

