#	Name: ASD05430436
#	Creating user name:	WinNT
#	Creation time:	15. 06. 2019 21:00

#	Modifying user name:	WinNT
#	Modification time:	15. 06. 2019 21:00

#	Program:	/corina/corina34_cracker 3.40 0067  02.08.2006

@<TRIPOS>MOLECULE
ASD05430436
  60   64    0    0    0
SMALL
NO_CHARGES


@<TRIPOS>ATOM
   1 C1            -0.0192     1.3887    -0.1035 C.ar    
   2 C2             0.0009    -0.0049    -0.0534 C.ar    
   3 C3            -1.1894    -0.7183     0.0116 C.ar    
   4 C4            -2.3954    -0.0525     0.0268 C.ar    
   5 C5            -2.4233     1.3452    -0.0233 C.ar    
   6 C6            -1.2249     2.0635    -0.0829 C.ar    
   7 C7            -4.8634     1.3652     0.0557 C.2     
   8 C8            -3.7106     2.0583    -0.0072 C.2     
   9 O9             1.1476     2.0836    -0.1670 O.3     
  10 C10            1.6197    -1.6716     0.7994 C.2     
  11 N11            1.2244    -0.6871    -0.0690 N.pl3   
  12 C12            2.8570    -2.0485     0.4245 C.2     
  13 N13            3.2122    -1.3177    -0.6426 N.2     
  14 C14            2.2429    -0.4986    -0.9479 C.2     
  15 C15            3.6973    -3.1084     1.0892 C.3     
  16 C16           -7.2420     0.0279    -0.3036 C.2     
  17 N17           -7.3189     1.3432    -0.0273 N.am    
  18 C18           -8.6098     1.9937     0.1753 C.3     
  19 C19           -9.6961     1.2381    -0.5969 C.3     
  20 C20           -9.6688    -0.2327    -0.1674 C.3     
  21 N21           -8.3208    -0.7630    -0.3809 N.am    
  22 C22           -8.9457     1.9644     1.6441 C.ar    
  23 C23           -7.9328     1.9814     2.5848 C.ar    
  24 C24          -10.2667     1.9262     2.0498 C.ar    
  25 C25          -10.5761     1.9002     3.3965 C.ar    
  26 C26           -9.5623     1.9120     4.3395 C.ar    
  27 C27           -8.2397     1.9551     3.9320 C.ar    
  28 F28           -9.8635     1.8866     5.6562 F       
  29 O29           -6.1465    -0.4626    -0.4963 O.2     
  30 C30            1.0523     3.5085    -0.2158 C.3     
  31 C31           -8.5742     3.4439    -0.2776 C.3     
  32 C32           -7.3468     4.1776     0.2274 C.3     
  33 N33           -6.1453     3.3646     0.1774 N.2     
  34 C34           -6.1469     2.0762     0.0718 C.2     
  35 H35           -1.1693    -1.7974     0.0499 H       
  36 H36           -3.3192    -0.6096     0.0769 H       
  37 H37           -1.2420     3.1426    -0.1216 H       
  38 H38           -4.8434     0.2861     0.0944 H       
  39 H39           -3.7307     3.1374    -0.0459 H       
  40 H40            1.0501    -2.0660     1.6279 H       
  41 H41            2.2494     0.2100    -1.7629 H       
  42 H42            3.4950    -4.0749     0.6276 H       
  43 H43            4.7526    -2.8628     0.9703 H       
  44 H44            3.4522    -3.1539     2.1503 H       
  45 H45          -10.6719     1.6674    -0.3700 H       
  46 H46           -9.5017     1.3104    -1.6670 H       
  47 H47           -9.9286    -0.3097     0.8884 H       
  48 H48          -10.3832    -0.8005    -0.7635 H       
  49 H49           -8.2066    -1.7049    -0.5824 H       
  50 H50           -6.9013     2.0151     2.2667 H       
  51 H51          -11.0573     1.9170     1.3141 H       
  52 H52          -11.6082     1.8711     3.7132 H       
  53 H53           -7.4481     1.9639     4.6666 H       
  54 H54            0.4865     3.8048    -1.0992 H       
  55 H55            0.5447     3.8696     0.6787 H       
  56 H56            2.0528     3.9382    -0.2642 H       
  57 H57           -8.5798     3.4736    -1.3672 H       
  58 H58           -9.4655     3.9510     0.0919 H       
  59 H59           -7.1941     5.0682    -0.3821 H       
  60 H60           -7.5207     4.4854     1.2585 H       
@<TRIPOS>BOND
   1    1    2 ar
   2    1    9 1
   3    1    6 ar
   4    2    3 ar
   5    2   11 1
   6    3    4 ar
   7    3   35 1
   8    4    5 ar
   9    4   36 1
  10    5    6 ar
  11    5    8 1
  12    6   37 1
  13    7    8 2
  14    7   34 1
  15    7   38 1
  16    8   39 1
  17    9   30 1
  18   10   11 1
  19   10   12 2
  20   10   40 1
  21   11   14 1
  22   12   13 1
  23   12   15 1
  24   13   14 2
  25   14   41 1
  26   15   42 1
  27   15   43 1
  28   15   44 1
  29   16   17 am
  30   16   21 am
  31   16   29 2
  32   17   18 1
  33   17   34 1
  34   18   19 1
  35   18   22 1
  36   18   31 1
  37   19   20 1
  38   19   45 1
  39   19   46 1
  40   20   21 1
  41   20   47 1
  42   20   48 1
  43   21   49 1
  44   22   23 ar
  45   22   24 ar
  46   23   27 ar
  47   23   50 1
  48   24   25 ar
  49   24   51 1
  50   25   26 ar
  51   25   52 1
  52   26   27 ar
  53   26   28 1
  54   27   53 1
  55   30   54 1
  56   30   55 1
  57   30   56 1
  58   31   32 1
  59   31   57 1
  60   31   58 1
  61   32   33 1
  62   32   59 1
  63   32   60 1
  64   33   34 2

#	End of record

