#	Name: ASD01881629
#	Creating user name:	WinNT
#	Creation time:	15. 06. 2019 19:43

#	Modifying user name:	WinNT
#	Modification time:	15. 06. 2019 19:43

#	Program:	/corina/corina34_cracker 3.40 0067  02.08.2006

@<TRIPOS>MOLECULE
ASD01881629
  41   43    0    0    0
SMALL
NO_CHARGES


@<TRIPOS>ATOM
   1 N1            -0.0154     1.2839     0.0091 N.pl3   
   2 N2             0.0021    -0.0041     0.0020 N.2     
   3 N3             1.2033    -0.4649    -0.0119 N.2     
   4 C4             2.0741     0.5645    -0.0147 C.ar    
   5 C5             1.2843     1.7298    -0.0009 C.ar    
   6 C6             3.4670     0.6759    -0.0271 C.ar    
   7 C7             4.0484     1.9285    -0.0255 C.ar    
   8 C8             3.2560     3.0739    -0.0118 C.ar    
   9 C9             1.8924     2.9784    -0.0004 C.ar    
  10 O10            5.4033     2.0444    -0.0370 O.3     
  11 C11            5.9411     3.3683    -0.0346 C.3     
  12 C12            7.4465     3.2990    -0.0485 C.ar    
  13 C13            8.0816     2.0705    -0.0608 C.ar    
  14 N14            8.1589     4.4123    -0.0543 N.ar    
  15 N15            9.4017     2.0077    -0.0729 N.ar    
  16 C16           10.1164     3.1185    -0.0733 C.ar    
  17 C17            9.4806     4.3512    -0.0664 C.ar    
  18 F18           10.2102     5.4883    -0.0731 F       
  19 C19           -1.2133     2.1272     0.0196 C.3     
  20 C20           -1.6228     2.4135     1.4657 C.3     
  21 C21           -0.4829     3.1377     2.1848 C.3     
  22 C22           -2.8739     3.2942     1.4767 C.3     
  23 C23           -1.9211     1.0947     2.1819 C.3     
  24 Br24           4.5472    -0.8761    -0.0451 Br      
  25 H25            3.7236     4.0474    -0.0103 H       
  26 H26            1.2882     3.8735     0.0099 H       
  27 H27            5.5939     3.9031    -0.9187 H       
  28 H28            5.6098     3.8935     0.8612 H       
  29 H29            7.4983     1.1616    -0.0601 H       
  30 H30           11.1951     3.0669    -0.0833 H       
  31 H31           -1.0007     3.0667    -0.4906 H       
  32 H32           -2.0254     1.6113    -0.4926 H       
  33 H33           -0.2704     4.0772     1.6746 H       
  34 H34           -0.7746     3.3417     3.2150 H       
  35 H35            0.4084     2.5103     2.1769 H       
  36 H36           -3.6859     2.7782     0.9645 H       
  37 H37           -3.1656     3.4981     2.5070 H       
  38 H38           -2.6613     4.2337     0.9666 H       
  39 H39           -1.0299     0.4673     2.1740 H       
  40 H40           -2.2129     1.2987     3.2121 H       
  41 H41           -2.7332     0.5788     1.6696 H       
@<TRIPOS>BOND
   1    1    2 1
   2    1    5 1
   3    1   19 1
   4    2    3 2
   5    3    4 1
   6    4    5 ar
   7    4    6 ar
   8    5    9 ar
   9    6    7 ar
  10    6   24 1
  11    7    8 ar
  12    7   10 1
  13    8    9 ar
  14    8   25 1
  15    9   26 1
  16   10   11 1
  17   11   12 1
  18   11   27 1
  19   11   28 1
  20   12   13 ar
  21   12   14 ar
  22   13   15 ar
  23   13   29 1
  24   14   17 ar
  25   15   16 ar
  26   16   17 ar
  27   16   30 1
  28   17   18 1
  29   19   20 1
  30   19   31 1
  31   19   32 1
  32   20   21 1
  33   20   22 1
  34   20   23 1
  35   21   33 1
  36   21   34 1
  37   21   35 1
  38   22   36 1
  39   22   37 1
  40   22   38 1
  41   23   39 1
  42   23   40 1
  43   23   41 1

#	End of record

