#	Name: ASD06770021
#	Creating user name:	WinNT
#	Creation time:	15. 06. 2019 21:08

#	Modifying user name:	WinNT
#	Modification time:	15. 06. 2019 21:08

#	Program:	/corina/corina34_cracker 3.40 0067  02.08.2006

@<TRIPOS>MOLECULE
ASD06770021
  21   22    0    0    0
SMALL
NO_CHARGES


@<TRIPOS>ATOM
   1 O1            -0.0170     1.4050     0.0098 O.3     
   2 C2             0.0021    -0.0041     0.0020 C.3     
   3 C3             0.3720    -0.5525     1.3370 C.2     
   4 N4             1.2170    -0.0275     2.1841 N.am    
   5 C5             1.8647     1.1837     2.2865 C.ar    
   6 C6             1.8902     2.1756     1.3277 C.ar    
   7 C7             1.2000     2.0902     0.0018 C.3     
   8 C8             2.5950     3.3516     1.5743 C.ar    
   9 C9             3.2692     3.5471     2.7604 C.ar    
  10 C10            3.2464     2.5570     3.7269 C.ar    
  11 C11            2.5545     1.3934     3.4921 C.ar    
  12 S12           -0.3350    -1.9177     1.7765 S.2     
  13 Cl13           4.1391     5.0232     3.0397 Cl      
  14 H14           -0.9864    -0.3722    -0.2728 H       
  15 H15            0.7266    -0.3464    -0.7369 H       
  16 H16            1.4396    -0.6311     2.9101 H       
  17 H17            1.8685     1.5943    -0.7019 H       
  18 H18            1.0210     3.1036    -0.3576 H       
  19 H19            2.6138     4.1253     0.8210 H       
  20 H20            3.7699     2.6982     4.6610 H       
  21 H21            2.5401     0.6244     4.2503 H       
@<TRIPOS>BOND
   1    1    2 1
   2    1    7 1
   3    2    3 1
   4    2   14 1
   5    2   15 1
   6    3    4 am
   7    3   12 2
   8    4    5 1
   9    4   16 1
  10    5    6 ar
  11    5   11 ar
  12    6    7 1
  13    6    8 ar
  14    7   17 1
  15    7   18 1
  16    8    9 ar
  17    8   19 1
  18    9   10 ar
  19    9   13 1
  20   10   11 ar
  21   10   20 1
  22   11   21 1

#	End of record

