#	Name: ASD01910899
#	Creating user name:	WinNT
#	Creation time:	15. 06. 2019 19:56

#	Modifying user name:	WinNT
#	Modification time:	15. 06. 2019 19:56

#	Program:	/corina/corina34_cracker 3.40 0067  02.08.2006

@<TRIPOS>MOLECULE
ASD01910899
  52   55    0    0    0
SMALL
NO_CHARGES


@<TRIPOS>ATOM
   1 C1            -0.0030     1.4270     0.1159 C.ar    
   2 N2             0.0241     0.0312     0.0706 N.3     
   3 C3            -0.5643    -0.5465     1.2863 C.3     
   4 C4            -0.6814    -2.0654     1.1210 C.3     
   5 N5             0.6396    -2.5988     0.7554 N.am    
   6 C6             1.3538    -1.9775    -0.3703 C.3     
   7 C7             1.3908    -0.4620    -0.1463 C.3     
   8 C8             1.1815    -3.6294     1.4342 C.2     
   9 C9             2.4445    -4.2401     0.9667 C.ar    
  10 C10            3.3850    -4.6977     1.8923 C.ar    
  11 C11            4.5655    -5.2684     1.4582 C.ar    
  12 C12            4.8251    -5.3911     0.1083 C.ar    
  13 C13            3.8928    -4.9368    -0.8299 C.ar    
  14 C14            2.6962    -4.3653    -0.3977 C.ar    
  15 C15            4.1631    -5.0640    -2.2304 C.1     
  16 O16            0.6321    -4.0569     2.4306 O.2     
  17 C17            4.3848    -5.1683    -3.3785 C.1     
  18 C18            4.6552    -5.2954    -4.7790 C.ar    
  19 C19            3.7310    -4.8451    -5.7249 C.ar    
  20 N20            3.9803    -4.9625    -7.0126 N.ar    
  21 C21            5.0977    -5.5026    -7.4598 C.ar    
  22 C22            6.0634    -5.9733    -6.5877 C.ar    
  23 C23            5.8541    -5.8685    -5.2245 C.ar    
  24 C24           -1.2167     2.1011     0.0784 C.ar    
  25 C25           -1.2400     3.4814     0.1238 C.ar    
  26 C26           -0.0568     4.1920     0.2066 C.ar    
  27 C27            1.1536     3.5238     0.2437 C.ar    
  28 C28            1.1838     2.1439     0.2044 C.ar    
  29 C29           -2.5068     1.3275    -0.0123 C.3     
  30 H30            0.0734    -0.3217     2.1412 H       
  31 H31           -1.5545    -0.1209     1.4488 H       
  32 H32           -1.0094    -2.5117     2.0598 H       
  33 H33           -1.3993    -2.2938     0.3332 H       
  34 H34            2.3713    -2.3656    -0.4174 H       
  35 H35            0.8315    -2.1973    -1.3014 H       
  36 H36            1.8184     0.0249    -1.0227 H       
  37 H37            2.0012    -0.2384     0.7286 H       
  38 H38            3.1889    -4.6047     2.9502 H       
  39 H39            5.2891    -5.6201     2.1787 H       
  40 H40            5.7502    -5.8383    -0.2242 H       
  41 H41            1.9723    -4.0127    -1.1175 H       
  42 H42            2.8043    -4.3975    -5.3975 H       
  43 H43            5.2614    -5.5790    -8.5246 H       
  44 H44            6.9734    -6.4139    -6.9676 H       
  45 H45            6.5912    -6.2277    -4.5216 H       
  46 H46           -2.1834     4.0063     0.0943 H       
  47 H47           -0.0778     5.2712     0.2420 H       
  48 H48            2.0760     4.0819     0.3080 H       
  49 H49            2.1293     1.6228     0.2333 H       
  50 H50           -2.9150     1.1830     0.9880 H       
  51 H51           -3.2216     1.8828    -0.6197 H       
  52 H52           -2.3171     0.3570    -0.4710 H       
@<TRIPOS>BOND
   1    1    2 1
   2    1   24 ar
   3    1   28 ar
   4    2    3 1
   5    2    7 1
   6    3    4 1
   7    3   30 1
   8    3   31 1
   9    4    5 1
  10    4   32 1
  11    4   33 1
  12    5    6 1
  13    5    8 am
  14    6    7 1
  15    6   34 1
  16    6   35 1
  17    7   36 1
  18    7   37 1
  19    8    9 1
  20    8   16 2
  21    9   10 ar
  22    9   14 ar
  23   10   11 ar
  24   10   38 1
  25   11   12 ar
  26   11   39 1
  27   12   13 ar
  28   12   40 1
  29   13   14 ar
  30   13   15 1
  31   14   41 1
  32   15   17 3
  33   17   18 1
  34   18   19 ar
  35   18   23 ar
  36   19   20 ar
  37   19   42 1
  38   20   21 ar
  39   21   22 ar
  40   21   43 1
  41   22   23 ar
  42   22   44 1
  43   23   45 1
  44   24   25 ar
  45   24   29 1
  46   25   26 ar
  47   25   46 1
  48   26   27 ar
  49   26   47 1
  50   27   28 ar
  51   27   48 1
  52   28   49 1
  53   29   50 1
  54   29   51 1
  55   29   52 1

#	End of record

