#	Name: ASD03731551
#	Creating user name:	WinNT
#	Creation time:	15. 06. 2019 20:45

#	Modifying user name:	WinNT
#	Modification time:	15. 06. 2019 20:45

#	Program:	/corina/corina34_cracker 3.40 0067  02.08.2006

@<TRIPOS>MOLECULE
ASD03731551
  37   38    0    0    0
SMALL
NO_CHARGES


@<TRIPOS>ATOM
   1 C1            -0.4038     1.1040    -1.9599 C.2     
   2 C2            -0.2824    -0.2741    -1.4497 C.ar    
   3 C3             0.9014    -0.9944    -1.6480 C.ar    
   4 C4             1.0104    -2.2840    -1.1681 C.ar    
   5 C5            -0.0519    -2.8664    -0.4897 C.ar    
   6 C6            -1.2312    -2.1531    -0.2903 C.ar    
   7 C7            -1.3472    -0.8633    -0.7612 C.ar    
   8 O8             0.5253     1.6164    -2.5540 O.2     
   9 N9            -1.5465     1.7936    -1.7726 N.am    
  10 S10           -1.6829     3.3413    -2.3456 S.o2    
  11 O11           -2.9851     3.7485    -1.9486 O.2     
  12 O12           -0.5261     4.0015    -1.8505 O.2     
  13 C13           -1.5929     3.1660    -4.1489 C.3     
  14 F14           -2.2616    -2.7249     0.3706 F       
  15 F15            1.9353    -0.4285    -2.3084 F       
  16 O16            0.0593    -4.1349    -0.0197 O.3     
  17 C17            1.2623    -4.7569    -0.1396 C.ar    
  18 C18            2.2132    -4.6272     0.8624 C.ar    
  19 C19            3.4358    -5.2594     0.7402 C.ar    
  20 C20            3.7121    -6.0241    -0.3851 C.ar    
  21 C21            2.7614    -6.1532    -1.3860 C.ar    
  22 C22            1.5368    -5.5256    -1.2610 C.ar    
  23 O23            4.9154    -6.6462    -0.5060 O.3     
  24 C24            5.1316    -7.4165    -1.6901 C.3     
  25 F25            4.1735    -8.4331    -1.7664 F       
  26 F26            5.0225    -6.5877    -2.8119 F       
  27 Cl27           4.6263    -5.0972     1.9933 Cl      
  28 H28            1.9230    -2.8410    -1.3208 H       
  29 H29           -2.2609    -0.3098    -0.6023 H       
  30 H30           -2.2890     1.3834    -1.3022 H       
  31 H31           -2.4092     2.5311    -4.4933 H       
  32 H32           -1.6754     4.1483    -4.6140 H       
  33 H33           -0.6400     2.7131    -4.4228 H       
  34 H34            1.9980    -4.0320     1.7375 H       
  35 H35            2.9764    -6.7480    -2.2613 H       
  36 H36            0.7947    -5.6303    -2.0387 H       
  37 H37            6.1278    -7.8576    -1.6597 H       
@<TRIPOS>BOND
   1    1    2 1
   2    1    8 2
   3    1    9 am
   4    2    3 ar
   5    2    7 ar
   6    3    4 ar
   7    3   15 1
   8    4    5 ar
   9    4   28 1
  10    5    6 ar
  11    5   16 1
  12    6    7 ar
  13    6   14 1
  14    7   29 1
  15    9   10 am
  16    9   30 1
  17   10   11 2
  18   10   12 2
  19   10   13 1
  20   13   31 1
  21   13   32 1
  22   13   33 1
  23   16   17 1
  24   17   18 ar
  25   17   22 ar
  26   18   19 ar
  27   18   34 1
  28   19   20 ar
  29   19   27 1
  30   20   21 ar
  31   20   23 1
  32   21   22 ar
  33   21   35 1
  34   22   36 1
  35   23   24 1
  36   24   25 1
  37   24   26 1
  38   24   37 1

#	End of record

