#	Name: ASD01884673
#	Creating user name:	WinNT
#	Creation time:	15. 06. 2019 19:48

#	Modifying user name:	WinNT
#	Modification time:	15. 06. 2019 19:48

#	Program:	/corina/corina34_cracker 3.40 0067  02.08.2006

@<TRIPOS>MOLECULE
ASD01884673
  46   48    0    0    0
SMALL
NO_CHARGES


@<TRIPOS>ATOM
   1 C1            -0.0164     1.3575     0.0095 C.2     
   2 C2             0.0021    -0.0041     0.0020 C.2     
   3 C3             1.2441    -0.6750    -0.0134 C.2     
   4 C4             2.4025     0.0467    -0.0206 C.2     
   5 N5             2.3701     1.4022    -0.0130 N.am    
   6 C6             1.1988     2.0651     0.0017 C.2     
   7 O7             1.1913     3.2854     0.0083 O.2     
   8 C8             1.2900    -2.1582    -0.0214 C.ar    
   9 C9             3.6267     2.1552    -0.0205 C.3     
  10 C10            4.0446     2.4211    -1.4438 C.ar    
  11 C11            3.4606     3.4555    -2.1550 C.ar    
  12 C12            3.8454     3.6993    -3.4624 C.ar    
  13 C13            4.8127     2.9094    -4.0565 C.ar    
  14 C14            5.3953     1.8759    -3.3442 C.ar    
  15 C15            5.0150     1.6358    -2.0374 C.ar    
  16 F16            2.5155     4.2262    -1.5736 F       
  17 Cl17           5.2955     3.2139    -5.6959 Cl      
  18 C18            0.8132    -2.8783     1.0719 C.ar    
  19 C19            1.8049    -2.8361    -1.1248 C.ar    
  20 C20            1.8452    -4.2154    -1.1268 C.ar    
  21 C21            1.3752    -4.9253    -0.0363 C.ar    
  22 C22            0.8583    -4.2579     1.0592 C.ar    
  23 C23            0.3482    -5.0380     2.2434 C.3     
  24 N24            1.4409    -5.2501     3.1958 N.am    
  25 S25            1.1081    -5.7423     4.7416 S.o2    
  26 O26            2.3816    -5.8157     5.3678 O.2     
  27 O27            0.1201    -4.8274     5.1956 O.2     
  28 C28            0.3985    -7.4002     4.5458 C.3     
  29 H29           -0.9563     1.8894     0.0168 H       
  30 H30           -0.9217    -0.5636     0.0082 H       
  31 H31            3.3529    -0.4662    -0.0321 H       
  32 H32            3.4856     3.1026     0.4997 H       
  33 H33            4.4005     1.5758     0.4831 H       
  34 H34            3.3902     4.5058    -4.0182 H       
  35 H35            6.1507     1.2591    -3.8084 H       
  36 H36            5.4703     0.8290    -1.4823 H       
  37 H37            0.4093    -2.3580     1.9279 H       
  38 H38            2.1714    -2.2829    -1.9769 H       
  39 H39            2.2440    -4.7418    -1.9813 H       
  40 H40            1.4083    -6.0048    -0.0422 H       
  41 H41           -0.4531    -4.4802     2.7280 H       
  42 H42           -0.0325    -6.0022     1.9065 H       
  43 H43            2.3593    -5.1022     2.9211 H       
  44 H44            1.1247    -8.0511     4.0590 H       
  45 H45            0.1466    -7.8057     5.5257 H       
  46 H46           -0.5024    -7.3400     3.9351 H       
@<TRIPOS>BOND
   1    1    2 2
   2    1    6 1
   3    1   29 1
   4    2    3 1
   5    2   30 1
   6    3    4 2
   7    3    8 1
   8    4    5 1
   9    4   31 1
  10    5    6 am
  11    5    9 1
  12    6    7 2
  13    8   18 ar
  14    8   19 ar
  15    9   10 1
  16    9   32 1
  17    9   33 1
  18   10   11 ar
  19   10   15 ar
  20   11   12 ar
  21   11   16 1
  22   12   13 ar
  23   12   34 1
  24   13   14 ar
  25   13   17 1
  26   14   15 ar
  27   14   35 1
  28   15   36 1
  29   18   22 ar
  30   18   37 1
  31   19   20 ar
  32   19   38 1
  33   20   21 ar
  34   20   39 1
  35   21   22 ar
  36   21   40 1
  37   22   23 1
  38   23   24 1
  39   23   41 1
  40   23   42 1
  41   24   25 am
  42   24   43 1
  43   25   26 2
  44   25   27 2
  45   25   28 1
  46   28   44 1
  47   28   45 1
  48   28   46 1

#	End of record

