#	Name: ASD01411272
#	Creating user name:	WinNT
#	Creation time:	15. 06. 2019 19:19

#	Modifying user name:	WinNT
#	Modification time:	15. 06. 2019 19:19

#	Program:	/corina/corina34_cracker 3.40 0067  02.08.2006

@<TRIPOS>MOLECULE
ASD01411272
 112  119    0    0    0
SMALL
NO_CHARGES


@<TRIPOS>ATOM
   1 C1             0.0608     2.0789     0.6483 C.ar    
   2 C2            -0.0064     0.6829     0.5966 C.ar    
   3 C3            -1.2525     0.0430     0.6635 C.ar    
   4 C4            -2.3926     0.7895     0.8381 C.ar    
   5 C5            -2.3251     2.1789     0.9274 C.ar    
   6 C6            -1.0975     2.8342     0.7847 C.ar    
   7 N7             1.3954     2.4463     0.5816 N.pl3   
   8 C8             2.1525     1.2970     0.4793 C.2     
   9 C9             1.3262     0.2189     0.4854 C.2     
  10 C10            1.8960     3.8231     0.6102 C.3     
  11 C11            1.2223     4.5930     1.7143 C.2     
  12 N12            1.6515     5.8595     2.0068 N.am    
  13 O13            0.3084     4.0965     2.3381 O.2     
  14 C14            0.9189     6.5308     3.1112 C.3     
  15 C15           -0.3126     7.2319     2.5271 C.3     
  16 C16           -1.3564     7.3655     3.6075 C.2     
  17 C17           -3.5016     2.9968     1.2497 C.2     
  18 O18           -4.4369     2.5076     1.8534 O.2     
  19 N19           -3.5429     4.3116     0.8692 N.am    
  20 C20           -2.6208     7.1448     3.3439 C.2     
  21 C21           -3.0550     6.7749     1.9513 C.3     
  22 S22           -4.2024     5.3665     1.9876 S.o2    
  23 C23            3.6264     1.2472     0.3787 C.ar    
  24 C24            4.2988     2.1152    -0.4837 C.ar    
  25 C25            1.7545    -1.2228     0.3907 C.3     
  26 C26            1.2932    -1.9751     1.6406 C.3     
  27 C27            1.7280    -3.4388     1.5445 C.3     
  28 C28            1.0996    -4.0771     0.3041 C.3     
  29 C29            1.5609    -3.3249    -0.9458 C.3     
  30 C30            1.1261    -1.8611    -0.8496 C.3     
  31 C31            5.6732     2.0660    -0.5743 C.ar    
  32 C32            6.3892     1.1542     0.1906 C.ar    
  33 C33            5.7240     0.2891     1.0496 C.ar    
  34 C34            4.3502     0.3360     1.1502 C.ar    
  35 O35            7.7437     1.1082     0.0978 O.3     
  36 C36            8.4175     0.1467     0.9124 C.3     
  37 C37            9.9030     0.2418     0.6772 C.ar    
  38 C38           10.3951     1.0898    -0.2944 C.ar    
  39 C39           11.7640     1.1778    -0.5109 C.ar    
  40 C40           12.6378     0.4126     0.2495 C.ar    
  41 C41           12.1459    -0.4362     1.2213 C.ar    
  42 C42           10.7775    -0.5197     1.4421 C.ar    
  43 N43           10.2789    -1.3792     2.4268 N.3     
  44 N44           12.2635     2.0389    -1.4975 N.am    
  45 C45           11.4272     2.7978    -2.4348 C.3     
  46 C46           10.7272    -0.9651     3.7631 C.3     
  47 C47           10.0184    -1.8158     4.8224 C.3     
  48 N48           10.2376    -3.2351     4.5050 N.am    
  49 C49            9.9401    -3.6971     3.1407 C.3     
  50 C50           10.6520    -2.7723     2.1476 C.3     
  51 C51           12.3762     3.2355    -3.5725 C.3     
  52 C52           13.7456     3.2457    -2.8544 C.3     
  53 C53           13.5698     2.2801    -1.7031 C.2     
  54 O54           14.4760     1.7893    -1.0635 O.2     
  55 O55           -5.4613     5.7286     1.4368 O.2     
  56 O56           -4.1108     4.6745     3.2253 O.2     
  57 S57           10.8037    -4.2853     5.6535 S.o2    
  58 C58            9.3085    -4.9348     6.4493 C.3     
  59 O59           11.4538    -5.3044     4.9065 O.2     
  60 O60           11.5301    -3.4609     6.5546 O.2     
  61 H61           -1.3157    -1.0317     0.5777 H       
  62 H62           -3.3503     0.2951     0.9066 H       
  63 H63           -1.0507     3.9132     0.7803 H       
  64 H64            2.9725     3.8131     0.7809 H       
  65 H65            1.6873     4.3039    -0.3455 H       
  66 H66            2.3796     6.2866     1.5290 H       
  67 H67            0.6038     5.7890     3.8451 H       
  68 H68            1.5677     7.2665     3.5864 H       
  69 H69           -0.0323     8.2214     2.1659 H       
  70 H70           -0.7130     6.6406     1.7036 H       
  71 H71           -1.0601     7.6517     4.6095 H       
  72 H72           -3.2114     4.6115     0.0083 H       
  73 H73           -3.3547     7.2351     4.1348 H       
  74 H74           -3.5509     7.6295     1.4910 H       
  75 H75           -2.1785     6.5083     1.3608 H       
  76 H76            3.7427     2.8240    -1.0793 H       
  77 H77            2.8407    -1.2750     0.3154 H       
  78 H78            1.7409    -1.5203     2.5243 H       
  79 H79            0.2071    -1.9229     1.7159 H       
  80 H80            2.8142    -3.4910     1.4692 H       
  81 H81            1.3994    -3.9747     2.4349 H       
  82 H82            1.4094    -5.1199     0.2356 H       
  83 H83            0.0134    -4.0249     0.3794 H       
  84 H84            2.6470    -3.3770    -1.0211 H       
  85 H85            1.1132    -3.7796    -1.8295 H       
  86 H86            0.0399    -1.8089    -0.7744 H       
  87 H87            1.4547    -1.3252    -1.7401 H       
  88 H88            6.1941     2.7371    -1.2412 H       
  89 H89            6.2843    -0.4185     1.6427 H       
  90 H90            3.8336    -0.3368     1.8187 H       
  91 H91            8.2024     0.3455     1.9623 H       
  92 H92            8.0720    -0.8543     0.6541 H       
  93 H93            9.7155     1.6846    -0.8866 H       
  94 H94           13.7024     0.4809     0.0808 H       
  95 H95           12.8257    -1.0320     1.8123 H       
  96 H96           10.6324     2.1646    -2.8291 H       
  97 H97           11.0036     3.6717    -1.9398 H       
  98 H98           11.8050    -1.1058     3.8450 H       
  99 H99           10.4844     0.0861     3.9186 H       
 100 H100          10.4303    -1.5928     5.8067 H       
 101 H101           8.9503    -1.5988     4.8116 H       
 102 H102          10.3002    -4.7180     3.0132 H       
 103 H103           8.8644    -3.6610     2.9683 H       
 104 H104          10.3546    -3.0318     1.1316 H       
 105 H105          11.7308    -2.8879     2.2520 H       
 106 H106          12.3683     2.5114    -4.3872 H       
 107 H107          12.1181     4.2307    -3.9346 H       
 108 H108          14.5316     2.9026    -3.5271 H       
 109 H109          13.9721     4.2436    -2.4791 H       
 110 H110           8.6910    -5.4390     5.7059 H       
 111 H111           9.5901    -5.6431     7.2285 H       
 112 H112           8.7460    -4.1126     6.8916 H       
@<TRIPOS>BOND
   1    1    2 ar
   2    1    7 1
   3    1    6 ar
   4    2    3 ar
   5    2    9 1
   6    3    4 ar
   7    3   61 1
   8    4    5 ar
   9    4   62 1
  10    5    6 ar
  11    5   17 1
  12    6   63 1
  13    7    8 1
  14    7   10 1
  15    8    9 2
  16    8   23 1
  17    9   25 1
  18   10   11 1
  19   10   64 1
  20   10   65 1
  21   11   12 am
  22   11   13 2
  23   12   14 1
  24   12   66 1
  25   14   15 1
  26   14   67 1
  27   14   68 1
  28   15   16 1
  29   15   69 1
  30   15   70 1
  31   16   20 2
  32   16   71 1
  33   17   18 2
  34   17   19 am
  35   19   22 am
  36   19   72 1
  37   20   21 1
  38   20   73 1
  39   21   22 1
  40   21   74 1
  41   21   75 1
  42   22   55 2
  43   22   56 2
  44   23   24 ar
  45   23   34 ar
  46   24   31 ar
  47   24   76 1
  48   25   26 1
  49   25   30 1
  50   25   77 1
  51   26   27 1
  52   26   78 1
  53   26   79 1
  54   27   28 1
  55   27   80 1
  56   27   81 1
  57   28   29 1
  58   28   82 1
  59   28   83 1
  60   29   30 1
  61   29   84 1
  62   29   85 1
  63   30   86 1
  64   30   87 1
  65   31   32 ar
  66   31   88 1
  67   32   33 ar
  68   32   35 1
  69   33   34 ar
  70   33   89 1
  71   34   90 1
  72   35   36 1
  73   36   37 1
  74   36   91 1
  75   36   92 1
  76   37   38 ar
  77   37   42 ar
  78   38   39 ar
  79   38   93 1
  80   39   40 ar
  81   39   44 1
  82   40   41 ar
  83   40   94 1
  84   41   42 ar
  85   41   95 1
  86   42   43 1
  87   43   46 1
  88   43   50 1
  89   44   45 1
  90   44   53 am
  91   45   51 1
  92   45   96 1
  93   45   97 1
  94   46   47 1
  95   46   98 1
  96   46   99 1
  97   47   48 1
  98   47  100 1
  99   47  101 1
 100   48   49 1
 101   48   57 am
 102   49   50 1
 103   49  102 1
 104   49  103 1
 105   50  104 1
 106   50  105 1
 107   51   52 1
 108   51  106 1
 109   51  107 1
 110   52   53 1
 111   52  108 1
 112   52  109 1
 113   53   54 2
 114   57   58 1
 115   57   59 2
 116   57   60 2
 117   58  110 1
 118   58  111 1
 119   58  112 1

#	End of record

