#	Name: ASD02030680
#	Creating user name:	WinNT
#	Creation time:	15. 06. 2019 20:15

#	Modifying user name:	WinNT
#	Modification time:	15. 06. 2019 20:15

#	Program:	/corina/corina34_cracker 3.40 0067  02.08.2006

@<TRIPOS>MOLECULE
ASD02030680
  50   53    0    0    0
SMALL
NO_CHARGES


@<TRIPOS>ATOM
   1 N1            -0.0366     1.3655     0.0826 N.am    
   2 C2             0.1028     0.0250     0.0722 C.2     
   3 C3            -1.0884    -0.8416     0.1649 C.ar    
   4 O4             1.2099    -0.4705    -0.0137 O.2     
   5 C5            -0.9461    -2.2316     0.1543 C.ar    
   6 C6            -2.0601    -3.0367     0.2416 C.ar    
   7 C7            -3.3244    -2.4684     0.3401 C.ar    
   8 C8            -3.4704    -1.0865     0.3505 C.ar    
   9 C9            -2.3611    -0.2743     0.2695 C.ar    
  10 O10           -4.4202    -3.2656     0.4259 O.3     
  11 C11           -4.5395    -4.0241     1.5327 C.2     
  12 N12           -5.5473    -4.9131     1.6350 N.am    
  13 O13           -3.7385    -3.9067     2.4389 O.2     
  14 C14            1.0930     2.1844     0.0732 C.ar    
  15 C15            2.2781     1.7285    -0.4634 C.ar    
  16 C16            3.4103     2.5374    -0.4776 C.ar    
  17 C17            3.3802     3.7982     0.0359 C.ar    
  18 C18            2.1917     4.3012     0.5918 C.ar    
  19 C19            1.0310     3.4890     0.6077 C.ar    
  20 C20           -5.6905    -5.7474     2.8359 C.3     
  21 C21           -6.5270    -5.0621     0.5503 C.3     
  22 C22            2.1310     5.5990     1.1286 C.ar    
  23 C23            0.9632     6.0545     1.6588 C.ar    
  24 C24           -0.1765     5.2530     1.6783 C.ar    
  25 C25           -0.1556     3.9929     1.1629 C.ar    
  26 C26           -7.1098    -5.5785     3.3872 C.3     
  27 C27           -7.9351    -4.9025     1.1323 C.3     
  28 C28           -8.1222    -5.8884     2.2821 C.3     
  29 H29           -0.9223     1.7609     0.0925 H       
  30 H30            0.0361    -2.6741     0.0774 H       
  31 H31           -1.9510    -4.1111     0.2331 H       
  32 H32           -4.4548    -0.6487     0.4268 H       
  33 H33           -2.4753     0.7996     0.2776 H       
  34 H34            2.3285     0.7322    -0.8771 H       
  35 H35            4.3282     2.1588    -0.9025 H       
  36 H36            4.2703     4.4097     0.0196 H       
  37 H37           -5.5210    -6.7925     2.5771 H       
  38 H38           -4.9667    -5.4329     3.5878 H       
  39 H39           -6.3549    -4.2957    -0.2054 H       
  40 H40           -6.4273    -6.0502     0.1010 H       
  41 H41            3.0066     6.2312     1.1206 H       
  42 H42            0.9194     7.0519     2.0709 H       
  43 H43           -1.0908     5.6383     2.1050 H       
  44 H44           -1.0465     3.3829     1.1844 H       
  45 H45           -7.2602    -6.2641     4.2211 H       
  46 H46           -7.2475    -4.5528     3.7295 H       
  47 H47           -8.0634    -3.8844     1.5001 H       
  48 H48           -8.6742    -5.1058     0.3574 H       
  49 H49           -7.9678    -6.9059     1.9231 H       
  50 H50           -9.1331    -5.7929     2.6785 H       
@<TRIPOS>BOND
   1    1    2 am
   2    1   14 1
   3    1   29 1
   4    2    3 1
   5    2    4 2
   6    3    5 ar
   7    3    9 ar
   8    5    6 ar
   9    5   30 1
  10    6    7 ar
  11    6   31 1
  12    7    8 ar
  13    7   10 1
  14    8    9 ar
  15    8   32 1
  16    9   33 1
  17   10   11 1
  18   11   12 am
  19   11   13 2
  20   12   20 1
  21   12   21 1
  22   14   15 ar
  23   14   19 ar
  24   15   16 ar
  25   15   34 1
  26   16   17 ar
  27   16   35 1
  28   17   18 ar
  29   17   36 1
  30   18   19 ar
  31   18   22 ar
  32   19   25 ar
  33   20   26 1
  34   20   37 1
  35   20   38 1
  36   21   27 1
  37   21   39 1
  38   21   40 1
  39   22   23 ar
  40   22   41 1
  41   23   24 ar
  42   23   42 1
  43   24   25 ar
  44   24   43 1
  45   25   44 1
  46   26   28 1
  47   26   45 1
  48   26   46 1
  49   27   28 1
  50   27   47 1
  51   27   48 1
  52   28   49 1
  53   28   50 1

#	End of record

