#	Name: ASD08150341
#	Creating user name:	WinNT
#	Creation time:	15. 06. 2019 21:15

#	Modifying user name:	WinNT
#	Modification time:	15. 06. 2019 21:15

#	Program:	/corina/corina34_cracker 3.40 0067  02.08.2006

@<TRIPOS>MOLECULE
ASD08150341
  76   82    0    0    0
SMALL
NO_CHARGES


@<TRIPOS>ATOM
   1 N1             0.1790     1.6360     0.5215 N.am    
   2 C2             0.1703     0.2953     0.3902 C.2     
   3 C3             1.3688    -0.4449     0.4431 C.2     
   4 C4             2.5551     0.1884     0.6283 C.2     
   5 C5             2.5679     1.5988     0.7664 C.ar    
   6 C6             3.7707     2.3047     0.9600 C.ar    
   7 N7             3.7796     3.6060     1.0871 N.ar    
   8 C8             2.6570     4.3392     1.0410 C.ar    
   9 C9             1.4009     3.7127     0.8491 C.ar    
  10 C10            1.3568     2.3056     0.7090 C.ar    
  11 C11            0.2368     4.4858     0.8036 C.ar    
  12 C12            0.3251     5.8611     0.9471 C.ar    
  13 C13            1.5717     6.4740     1.1363 C.ar    
  14 C14            2.7127     5.7356     1.1827 C.ar    
  15 O15           -0.8886    -0.2859     0.2237 O.2     
  16 C16           -0.9048     6.6886     0.9001 C.ar    
  17 C17           -1.0253     2.3494     0.4599 C.ar    
  18 C18           -1.4879     2.8272    -0.7597 C.ar    
  19 C19           -2.6740     3.5299    -0.8205 C.ar    
  20 C20           -3.4057     3.7594     0.3382 C.ar    
  21 C21           -2.9430     3.2816     1.5576 C.ar    
  22 C22           -1.7593     2.5738     1.6173 C.ar    
  23 N23           -4.6071     4.4716     0.2767 N.3     
  24 C24           -2.1273     6.1170     0.5128 C.ar    
  25 C25           -5.7580     3.5598     0.2336 C.3     
  26 C26           -7.0528     4.3711     0.3497 C.3     
  27 N27           -7.0458     5.4133    -0.6880 N.am    
  28 C28           -5.8625     6.2802    -0.7957 C.3     
  29 C29           -4.6146     5.3937    -0.8668 C.3     
  30 C30           -8.0960     5.5702    -1.5180 C.2     
  31 O31           -9.0639     4.8466    -1.4148 O.2     
  32 C32           -8.0678     6.6446    -2.5743 C.3     
  33 N33           -3.2283     6.8230     0.4626 N.ar    
  34 C34           -3.2441     8.1226     0.7772 C.ar    
  35 C35           -2.0495     8.7725     1.1780 C.ar    
  36 C36           -0.8568     8.0319     1.2439 C.ar    
  37 C37           -9.3718     6.6083    -3.3738 C.3     
  38 C38           -4.4366     8.8645     0.7167 C.ar    
  39 C39           -4.4282    10.1862     1.0412 C.ar    
  40 C40           -3.2528    10.8231     1.4346 C.ar    
  41 C41           -2.0782    10.1387     1.5055 C.ar    
  42 C42            3.8399    -0.5971     0.6868 C.3     
  43 C43           -3.7362     3.5308     2.8145 C.3     
  44 F44           -3.0087     3.0815     3.9218 F       
  45 F45           -3.9849     4.9014     2.9449 F       
  46 F46           -4.9512     2.8410     2.7437 F       
  47 H47            1.3430    -1.5193     0.3362 H       
  48 H48            4.7030     1.7614     1.0046 H       
  49 H49           -0.7239     4.0145     0.6572 H       
  50 H50            1.6266     7.5470     1.2465 H       
  51 H51            3.6646     6.2242     1.3295 H       
  52 H52           -0.9190     2.6491    -1.6602 H       
  53 H53           -3.0334     3.9017    -1.7687 H       
  54 H54           -1.4018     2.1984     2.5647 H       
  55 H55           -2.1599     5.0700     0.2498 H       
  56 H56           -5.7543     3.0138    -0.7098 H       
  57 H57           -5.6948     2.8549     1.0625 H       
  58 H58           -7.9106     3.7146     0.2036 H       
  59 H59           -7.1070     4.8353     1.3345 H       
  60 H60           -5.9333     6.8859    -1.6992 H       
  61 H61           -5.8023     6.9279     0.0789 H       
  62 H62           -3.7221     6.0188    -0.8358 H       
  63 H63           -4.6267     4.8222    -1.7948 H       
  64 H64           -7.9604     7.6193    -2.0984 H       
  65 H65           -7.2257     6.4729    -3.2448 H       
  66 H66            0.0705     8.4963     1.5454 H       
  67 H67           -9.3513     7.3854    -4.1378 H       
  68 H68           -9.4791     5.6336    -3.8498 H       
  69 H69          -10.2139     6.7799    -2.7034 H       
  70 H70           -5.3567     8.3872     0.4132 H       
  71 H71           -5.3476    10.7508     0.9928 H       
  72 H72           -3.2739    11.8732     1.6861 H       
  73 H73           -1.1735    10.6428     1.8120 H       
  74 H74            3.6231    -1.6580     0.5617 H       
  75 H75            4.5050    -0.2656    -0.1105 H       
  76 H76            4.3207    -0.4359     1.6517 H       
@<TRIPOS>BOND
   1    1    2 am
   2    1   10 1
   3    1   17 1
   4    2    3 1
   5    2   15 2
   6    3    4 2
   7    3   47 1
   8    4    5 1
   9    4   42 1
  10    5    6 ar
  11    5   10 ar
  12    6    7 ar
  13    6   48 1
  14    7    8 ar
  15    8    9 ar
  16    8   14 ar
  17    9   10 ar
  18    9   11 ar
  19   11   12 ar
  20   11   49 1
  21   12   13 ar
  22   12   16 1
  23   13   14 ar
  24   13   50 1
  25   14   51 1
  26   16   24 ar
  27   16   36 ar
  28   17   18 ar
  29   17   22 ar
  30   18   19 ar
  31   18   52 1
  32   19   20 ar
  33   19   53 1
  34   20   21 ar
  35   20   23 1
  36   21   22 ar
  37   21   43 1
  38   22   54 1
  39   23   25 1
  40   23   29 1
  41   24   33 ar
  42   24   55 1
  43   25   26 1
  44   25   56 1
  45   25   57 1
  46   26   27 1
  47   26   58 1
  48   26   59 1
  49   27   28 1
  50   27   30 am
  51   28   29 1
  52   28   60 1
  53   28   61 1
  54   29   62 1
  55   29   63 1
  56   30   31 2
  57   30   32 1
  58   32   37 1
  59   32   64 1
  60   32   65 1
  61   33   34 ar
  62   34   35 ar
  63   34   38 ar
  64   35   36 ar
  65   35   41 ar
  66   36   66 1
  67   37   67 1
  68   37   68 1
  69   37   69 1
  70   38   39 ar
  71   38   70 1
  72   39   40 ar
  73   39   71 1
  74   40   41 ar
  75   40   72 1
  76   41   73 1
  77   42   74 1
  78   42   75 1
  79   42   76 1
  80   43   44 1
  81   43   45 1
  82   43   46 1

#	End of record

