#	Name: ASD05380299
#	Creating user name:	WinNT
#	Creation time:	15. 06. 2019 20:59

#	Modifying user name:	WinNT
#	Modification time:	15. 06. 2019 20:59

#	Program:	/corina/corina34_cracker 3.40 0067  02.08.2006

@<TRIPOS>MOLECULE
ASD05380299
  37   39    0    0    0
SMALL
NO_CHARGES


@<TRIPOS>ATOM
   1 C1             0.2662     1.3465     1.0817 C.ar    
   2 C2             0.1005     0.0525     0.6052 C.ar    
   3 C3             1.1596    -0.6410     0.0645 C.ar    
   4 C4             2.4171    -0.0379    -0.0068 C.ar    
   5 C5             2.5821     1.2783     0.4788 C.ar    
   6 C6             1.4968     1.9628     1.0225 C.ar    
   7 N7             3.4876    -0.6852    -0.5313 N.2     
   8 N8             4.9069     1.1374    -0.1543 N.am    
   9 C9             3.9183     1.8847     0.3899 C.2     
  10 C10            1.6680     3.3673     1.5413 C.3     
  11 O11            4.1276     3.0151     0.7902 O.2     
  12 C12            6.1986     1.6678    -0.2626 C.ar    
  13 C13            6.5771     2.3486    -1.4122 C.ar    
  14 C14            7.8516     2.8705    -1.5159 C.ar    
  15 C15            8.7505     2.7153    -0.4767 C.ar    
  16 C16            8.3768     2.0375     0.6693 C.ar    
  17 C17            7.1016     1.5190     0.7818 C.ar    
  18 C18            4.6569    -0.1246    -0.5971 C.2     
  19 C19            5.7949    -0.9116    -1.1943 C.3     
  20 C20            5.4125    -2.3916    -1.2594 C.3     
  21 O21            6.0661    -0.4312    -2.5125 O.3     
  22 H22           -0.5780     1.8758     1.4983 H       
  23 H23           -0.8713    -0.4156     0.6598 H       
  24 H24            1.0188    -1.6469    -0.3026 H       
  25 H25            1.5908     4.0724     0.7136 H       
  26 H26            0.8903     3.5811     2.2745 H       
  27 H27            2.6468     3.4643     2.0111 H       
  28 H28            5.8757     2.4695    -2.2244 H       
  29 H29            8.1466     3.4000    -2.4097 H       
  30 H30            9.7467     3.1240    -0.5603 H       
  31 H31            9.0813     1.9176     1.4791 H       
  32 H32            6.8103     0.9898     1.6770 H       
  33 H33            6.6835    -0.7929    -0.5743 H       
  34 H34            4.5239    -2.5104    -1.8794 H       
  35 H35            6.2356    -2.9609    -1.6914 H       
  36 H36            5.2056    -2.7580    -0.2539 H       
  37 H37            5.3176    -0.5061    -3.1202 H       
@<TRIPOS>BOND
   1    1    2 ar
   2    1    6 ar
   3    1   22 1
   4    2    3 ar
   5    2   23 1
   6    3    4 ar
   7    3   24 1
   8    4    5 ar
   9    4    7 1
  10    5    6 ar
  11    5    9 1
  12    6   10 1
  13    7   18 2
  14    8    9 am
  15    8   12 1
  16    8   18 1
  17    9   11 2
  18   10   25 1
  19   10   26 1
  20   10   27 1
  21   12   13 ar
  22   12   17 ar
  23   13   14 ar
  24   13   28 1
  25   14   15 ar
  26   14   29 1
  27   15   16 ar
  28   15   30 1
  29   16   17 ar
  30   16   31 1
  31   17   32 1
  32   18   19 1
  33   19   20 1
  34   19   21 1
  35   19   33 1
  36   20   34 1
  37   20   35 1
  38   20   36 1
  39   21   37 1

#	End of record

