#	Name: ASD01813230
#	Creating user name:	WinNT
#	Creation time:	15. 06. 2019 19:30

#	Modifying user name:	WinNT
#	Modification time:	15. 06. 2019 19:30

#	Program:	/corina/corina34_cracker 3.40 0067  02.08.2006

@<TRIPOS>MOLECULE
ASD01813230
  53   57    0    0    0
SMALL
NO_CHARGES


@<TRIPOS>ATOM
   1 C1            -0.0169     1.3972     0.0097 C.2     
   2 C2             0.0021    -0.0041     0.0020 C.2     
   3 C3             1.1986    -0.6593    -0.0129 C.2     
   4 C4             2.3918     0.0821    -0.0204 C.2     
   5 N5             2.3437     1.4497    -0.0122 N.am    
   6 C6             1.1421     2.0937     0.0024 C.2     
   7 C7             3.6227    -0.5889    -0.0356 C.2     
   8 C8             4.7877     0.1218    -0.0425 C.2     
   9 C9             4.7345     1.5280    -0.0346 C.2     
  10 C10            3.4812     2.1736    -0.0189 C.2     
  11 O11            3.4258     3.3917    -0.0123 O.2     
  12 C12            5.9703     2.3140    -0.0413 C.2     
  13 O13            5.9124     3.6618    -0.0337 O.3     
  14 O14            7.0487     1.7516    -0.0537 O.2     
  15 C15            3.6593    -2.0954    -0.0439 C.3     
  16 N16            3.7787    -2.5747    -1.4274 N.3     
  17 C17            4.0548    -4.0166    -1.4628 C.3     
  18 C18            4.0168    -4.5081    -2.9126 C.3     
  19 C19            5.0469    -3.7373    -3.7340 C.3     
  20 C20            4.7892    -2.2362    -3.6330 C.3     
  21 C21            4.8020    -1.8179    -2.1601 C.3     
  22 C22            6.4669    -4.0627    -3.2367 C.3     
  23 C23            6.8810    -5.2269    -4.1631 C.3     
  24 C24            6.0662    -5.0388    -5.4253 C.ar    
  25 C25            5.0096    -4.1812    -5.1766 C.ar    
  26 C26            6.2355    -5.5750    -6.6907 C.ar    
  27 C27            5.3544    -5.2561    -7.7051 C.ar    
  28 C28            4.2985    -4.3988    -7.4570 C.ar    
  29 C29            4.1268    -3.8638    -6.1956 C.ar    
  30 H30           -0.9605     1.9226     0.0170 H       
  31 H31           -0.9233    -0.5609     0.0082 H       
  32 H32            1.2282    -1.7389    -0.0187 H       
  33 H33            1.1156     3.1733     0.0087 H       
  34 H34            5.7393    -0.3889    -0.0536 H       
  35 H35            6.7544     4.1373    -0.0385 H       
  36 H36            4.5153    -2.4412     0.5356 H       
  37 H37            2.7412    -2.4836     0.3971 H       
  38 H38            5.0410    -4.2083    -1.0400 H       
  39 H39            3.3006    -4.5454    -0.8801 H       
  40 H40            4.2504    -5.5723    -2.9423 H       
  41 H41            3.0225    -4.3416    -3.3273 H       
  42 H42            5.5683    -1.6963    -4.1712 H       
  43 H43            3.8175    -2.0037    -4.0687 H       
  44 H44            4.5897    -0.7515    -2.0833 H       
  45 H45            5.7829    -2.0248    -1.7321 H       
  46 H46            7.1296    -3.2075    -3.3688 H       
  47 H47            6.4489    -4.3835    -2.1951 H       
  48 H48            7.9460    -5.1703    -4.3885 H       
  49 H49            6.6425    -6.1834    -3.6981 H       
  50 H50            7.0600    -6.2450    -6.8851 H       
  51 H51            5.4903    -5.6754    -8.6910 H       
  52 H52            3.6083    -4.1482    -8.2489 H       
  53 H53            3.3010    -3.1950    -6.0029 H       
@<TRIPOS>BOND
   1    1    2 1
   2    1    6 2
   3    1   30 1
   4    2    3 2
   5    2   31 1
   6    3    4 1
   7    3   32 1
   8    4    5 1
   9    4    7 2
  10    5    6 1
  11    5   10 am
  12    6   33 1
  13    7    8 1
  14    7   15 1
  15    8    9 2
  16    8   34 1
  17    9   10 1
  18    9   12 1
  19   10   11 2
  20   12   13 1
  21   12   14 2
  22   13   35 1
  23   15   16 1
  24   15   36 1
  25   15   37 1
  26   16   17 1
  27   16   21 1
  28   17   18 1
  29   17   38 1
  30   17   39 1
  31   18   19 1
  32   18   40 1
  33   18   41 1
  34   19   20 1
  35   19   22 1
  36   19   25 1
  37   20   21 1
  38   20   42 1
  39   20   43 1
  40   21   44 1
  41   21   45 1
  42   22   23 1
  43   22   46 1
  44   22   47 1
  45   23   24 1
  46   23   48 1
  47   23   49 1
  48   24   25 ar
  49   24   26 ar
  50   25   29 ar
  51   26   27 ar
  52   26   50 1
  53   27   28 ar
  54   27   51 1
  55   28   29 ar
  56   28   52 1
  57   29   53 1

#	End of record

