#	Name: ASD02198338
#	Creating user name:	WinNT
#	Creation time:	15. 06. 2019 20:19

#	Modifying user name:	WinNT
#	Modification time:	15. 06. 2019 20:19

#	Program:	/corina/corina34_cracker 3.40 0067  02.08.2006

@<TRIPOS>MOLECULE
ASD02198338
  49   52    0    0    0
SMALL
NO_CHARGES


@<TRIPOS>ATOM
   1 C1             0.5273     2.4023     2.9113 C.2     
   2 C2             0.3670     1.1312     3.4328 C.2     
   3 S3             1.8332     2.3356     1.7307 S.3     
   4 C4             2.0415     0.6665     2.0305 C.2     
   5 N5             1.1973     0.2484     2.9295 N.2     
   6 N6            -0.5798     0.8198     4.3952 N.pl3   
   7 C7            -0.2219     3.5420     3.2571 C.2     
   8 C8             0.1760     4.8727     2.7449 C.ar    
   9 O9            -1.1988     3.4337     3.9787 O.2     
  10 N10            2.9754    -0.1291     1.4057 N.pl3   
  11 C11           -0.7402     5.9243     2.7429 C.ar    
  12 C12            1.4705     5.0806     2.2677 C.ar    
  13 C13            1.8383     6.3224     1.7907 C.ar    
  14 C14            0.9277     7.3626     1.7844 C.ar    
  15 C15           -0.3612     7.1662     2.2623 C.ar    
  16 C16            2.9653    -1.5137     1.6113 C.ar    
  17 C17            1.7896    -2.1522     1.9839 C.ar    
  18 C18            1.7803    -3.5180     2.1861 C.ar    
  19 C19            2.9452    -4.2526     2.0172 C.ar    
  20 C20            4.1203    -3.6154     1.6454 C.ar    
  21 C21            4.1298    -2.2504     1.4373 C.ar    
  22 O22           -1.2525     8.1922     2.2538 O.3     
  23 C23           -0.7952     9.4446     1.7393 C.3     
  24 O24            2.9353    -5.5975     2.2164 O.3     
  25 C25            2.9640    -6.0530     3.4963 C.ar    
  26 C26            3.0375    -7.4157     3.7476 C.ar    
  27 C27            3.0665    -7.8760     5.0497 C.ar    
  28 C28            3.0223    -6.9803     6.1021 C.ar    
  29 C29            2.9486    -5.6220     5.8545 C.ar    
  30 C30            2.9256    -5.1559     4.5543 C.ar    
  31 H31           -1.1705     1.5098     4.7355 H       
  32 H32           -0.6519    -0.0882     4.7287 H       
  33 H33            3.6404     0.2699     0.8230 H       
  34 H34           -1.7424     5.7703     3.1149 H       
  35 H35            2.1845     4.2704     2.2718 H       
  36 H36            2.8406     6.4822     1.4216 H       
  37 H37            1.2211     8.3324     1.4107 H       
  38 H38            0.8829    -1.5805     2.1158 H       
  39 H39            0.8662    -4.0146     2.4762 H       
  40 H40            5.0267    -4.1877     1.5145 H       
  41 H41            5.0444    -1.7545     1.1477 H       
  42 H42           -1.6029    10.1748     1.7898 H       
  43 H43            0.0490     9.7948     2.3331 H       
  44 H44           -0.4830     9.3192     0.7025 H       
  45 H45            3.0717    -8.1157     2.9259 H       
  46 H46            3.1233    -8.9366     5.2458 H       
  47 H47            3.0451    -7.3423     7.1194 H       
  48 H48            2.9136    -4.9245     6.6783 H       
  49 H49            2.8684    -4.0948     4.3614 H       
@<TRIPOS>BOND
   1    1    2 2
   2    1    3 1
   3    1    7 1
   4    2    6 1
   5    2    5 1
   6    3    4 1
   7    4    5 2
   8    4   10 1
   9    6   31 1
  10    6   32 1
  11    7    8 1
  12    7    9 2
  13    8   11 ar
  14    8   12 ar
  15   10   16 1
  16   10   33 1
  17   11   15 ar
  18   11   34 1
  19   12   13 ar
  20   12   35 1
  21   13   14 ar
  22   13   36 1
  23   14   15 ar
  24   14   37 1
  25   15   22 1
  26   16   17 ar
  27   16   21 ar
  28   17   18 ar
  29   17   38 1
  30   18   19 ar
  31   18   39 1
  32   19   20 ar
  33   19   24 1
  34   20   21 ar
  35   20   40 1
  36   21   41 1
  37   22   23 1
  38   23   42 1
  39   23   43 1
  40   23   44 1
  41   24   25 1
  42   25   26 ar
  43   25   30 ar
  44   26   27 ar
  45   26   45 1
  46   27   28 ar
  47   27   46 1
  48   28   29 ar
  49   28   47 1
  50   29   30 ar
  51   29   48 1
  52   30   49 1

#	End of record

