#	Name: ASD01148026
#	Creating user name:	WinNT
#	Creation time:	15. 06. 2019 19:01

#	Modifying user name:	WinNT
#	Modification time:	15. 06. 2019 19:01

#	Program:	/corina/corina34_cracker 3.40 0067  02.08.2006

@<TRIPOS>MOLECULE
ASD01148026
  43   43    0    0    0
SMALL
NO_CHARGES


@<TRIPOS>ATOM
   1 C1            -0.0162     1.3436     0.0094 C.2     
   2 N2             0.0021    -0.0041     0.0020 N.am    
   3 O3             1.0277     1.9654     0.0028 O.2     
   4 O4            -1.1912     2.0008     0.0186 O.3     
   5 C5             1.2806    -0.7192    -0.0140 C.3     
   6 C6             1.0960    -2.0915     0.5809 C.2     
   7 N7             2.1444    -2.9337     0.6704 N.am    
   8 C8             1.9651    -4.2677     1.2487 C.3     
   9 C9             4.1478    -4.9447     2.2437 C.2     
  10 C10            3.2802    -5.0034     1.2322 C.2     
  11 C11            3.6791    -5.7915     0.1665 C.2     
  12 C12            4.8707    -6.3729     0.3125 C.2     
  13 S13            5.5588    -5.9252     1.8680 S.3     
  14 O14            0.0041    -2.4380     0.9790 O.2     
  15 C15            1.7733    -0.8507    -1.4565 C.3     
  16 O16            0.8696    -1.6752    -2.1953 O.3     
  17 C17            1.2399    -1.8633    -3.5626 C.3     
  18 F18            1.2881    -0.6228    -4.2075 F       
  19 F19            2.4985    -2.4708    -3.6256 F       
  20 C20           -1.1349     3.4517     0.0262 C.3     
  21 C21           -0.4003     3.9401    -1.2239 C.3     
  22 C22           -2.5565     4.0172     0.0360 C.3     
  23 C23           -0.3885     3.9266     1.2745 C.3     
  24 H24           -0.8313    -0.5005     0.0073 H       
  25 H25            2.0142    -0.1651     0.5714 H       
  26 H26            3.0178    -2.6565     0.3520 H       
  27 H27            1.6140    -4.1740     2.2764 H       
  28 H28            1.2314    -4.8219     0.6633 H       
  29 H29            4.0075    -4.3781     3.1523 H       
  30 H30            3.0714    -5.9258    -0.7162 H       
  31 H31            5.3408    -7.0201    -0.4132 H       
  32 H32            1.8219     0.1368    -1.9153 H       
  33 H33            2.7650    -1.3031    -1.4619 H       
  34 H34            0.5041    -2.4999    -4.0540 H       
  35 H35           -0.9321     3.6018    -2.1132 H       
  36 H36           -0.3581     5.0293    -1.2182 H       
  37 H37            0.6125     3.5373    -1.2309 H       
  38 H38           -3.0798     3.6692     0.9266 H       
  39 H39           -2.5142     5.1064     0.0417 H       
  40 H40           -3.0883     3.6789    -0.8533 H       
  41 H41            0.6243     3.5237     1.2675 H       
  42 H42           -0.3462     5.0157     1.2802 H       
  43 H43           -0.9118     3.5786     2.1651 H       
@<TRIPOS>BOND
   1    1    2 am
   2    1    3 2
   3    1    4 1
   4    2    5 1
   5    2   24 1
   6    4   20 1
   7    5    6 1
   8    5   15 1
   9    5   25 1
  10    6    7 am
  11    6   14 2
  12    7    8 1
  13    7   26 1
  14    8   10 1
  15    8   27 1
  16    8   28 1
  17    9   10 2
  18    9   13 1
  19    9   29 1
  20   10   11 1
  21   11   12 2
  22   11   30 1
  23   12   13 1
  24   12   31 1
  25   15   16 1
  26   15   32 1
  27   15   33 1
  28   16   17 1
  29   17   18 1
  30   17   19 1
  31   17   34 1
  32   20   21 1
  33   20   23 1
  34   20   22 1
  35   21   35 1
  36   21   36 1
  37   21   37 1
  38   22   38 1
  39   22   39 1
  40   22   40 1
  41   23   41 1
  42   23   42 1
  43   23   43 1

#	End of record

