#	Name: ASD03330886
#	Creating user name:	WinNT
#	Creation time:	15. 06. 2019 20:38

#	Modifying user name:	WinNT
#	Modification time:	15. 06. 2019 20:38

#	Program:	/corina/corina34_cracker 3.40 0067  02.08.2006

@<TRIPOS>MOLECULE
ASD03330886
  66   68    0    0    0
SMALL
NO_CHARGES


@<TRIPOS>ATOM
   1 N1             0.0699     1.1530    -0.7557 N.pl3   
   2 C2             0.0734    -0.1813    -0.4929 C.2     
   3 C3             1.2942    -1.0163    -0.2071 C.3     
   4 N4             2.1306    -0.3236     0.7855 N.3     
   5 C5             3.0820     0.5815     0.1381 C.3     
   6 C6             2.4829     1.1897    -1.1268 C.3     
   7 C7             1.2495     2.0228    -0.7674 C.3     
   8 C8            -1.2233     1.5200    -0.9901 C.2     
   9 N9            -1.9891     0.4619    -0.8599 N.2     
  10 C10           -1.2193    -0.6047    -0.5503 C.2     
  11 C11           -1.6939    -1.9801    -0.3173 C.2     
  12 O12           -0.8994    -2.8596    -0.0446 O.2     
  13 N13           -3.0086    -2.2635    -0.4064 N.am    
  14 C14           -1.6850     2.8823    -1.3329 C.ar    
  15 C15           -2.5864     3.0735    -2.3837 C.ar    
  16 C16           -3.0148     4.3486    -2.6994 C.ar    
  17 C17           -2.5523     5.4359    -1.9770 C.ar    
  18 C18           -1.6567     5.2515    -0.9328 C.ar    
  19 C19           -1.2267     3.9808    -0.6048 C.ar    
  20 F20           -1.2087     6.3165    -0.2327 F       
  21 F21           -2.9740     6.6807    -2.2900 F       
  22 F22           -3.0376     2.0138    -3.0896 F       
  23 C23            2.8250    -1.2854     1.6519 C.3     
  24 C24           -4.7873    -3.8402    -0.8954 C.2     
  25 C25           -3.4805    -3.6309    -0.1747 C.3     
  26 C26           -3.6840    -3.8529     1.3253 C.3     
  27 C27           -4.7796    -2.9148     1.8357 C.3     
  28 O28           -5.4219    -2.8849    -1.2901 O.2     
  29 C29           -4.0987    -5.3045     1.5744 C.3     
  30 C30           -2.3773    -3.5616     2.0660 C.3     
  31 N31           -5.2509    -5.0888    -1.1013 N.am    
  32 C32           -6.5590    -5.2902    -1.7295 C.3     
  33 C33           -6.5948    -6.6630    -2.4042 C.3     
  34 C34           -7.6536    -5.2174    -0.6630 C.3     
  35 H35            0.9885    -1.9856     0.1869 H       
  36 H36            1.8620    -1.1582    -1.1266 H       
  37 H37            3.3436     1.3813     0.8308 H       
  38 H38            3.9830     0.0266    -0.1235 H       
  39 H39            3.2238     1.8281    -1.6079 H       
  40 H40            2.1944     0.3918    -1.8110 H       
  41 H41            1.1138     2.8110    -1.5080 H       
  42 H42            1.3845     2.4671     0.2187 H       
  43 H43           -3.6423    -1.5620    -0.6238 H       
  44 H44           -3.7114     4.4977    -3.5111 H       
  45 H45           -0.5332     3.8380     0.2107 H       
  46 H46            3.4082    -1.9720     1.0382 H       
  47 H47            3.4896    -0.7499     2.3297 H       
  48 H48            2.0924    -1.8481     2.2305 H       
  49 H49           -2.7413    -4.3388    -0.5498 H       
  50 H50           -5.7105    -3.1223     1.3081 H       
  51 H51           -4.9246    -3.0730     2.9044 H       
  52 H52           -4.4842    -1.8807     1.6583 H       
  53 H53           -3.3082    -5.9721     1.2315 H       
  54 H54           -4.2658    -5.4567     2.6407 H       
  55 H55           -5.0175    -5.5186     1.0284 H       
  56 H56           -2.0819    -2.5275     1.8885 H       
  57 H57           -2.5223    -3.7198     3.1346 H       
  58 H58           -1.5968    -4.2300     1.7024 H       
  59 H59           -4.7185    -5.8541    -0.8335 H       
  60 H60           -6.7269    -4.5140    -2.4761 H       
  61 H61           -6.4269    -7.4392    -1.6576 H       
  62 H62           -7.5680    -6.8128    -2.8716 H       
  63 H63           -5.8150    -6.7148    -3.1640 H       
  64 H64           -7.6281    -4.2394    -0.1824 H       
  65 H65           -8.6268    -5.3672    -1.1304 H       
  66 H66           -7.4857    -5.9936     0.0835 H       
@<TRIPOS>BOND
   1    1    2 1
   2    1    7 1
   3    1    8 1
   4    2    3 1
   5    2   10 2
   6    3    4 1
   7    3   35 1
   8    3   36 1
   9    4    5 1
  10    4   23 1
  11    5    6 1
  12    5   37 1
  13    5   38 1
  14    6    7 1
  15    6   39 1
  16    6   40 1
  17    7   41 1
  18    7   42 1
  19    8    9 2
  20    8   14 1
  21    9   10 1
  22   10   11 1
  23   11   12 2
  24   11   13 am
  25   13   25 1
  26   13   43 1
  27   14   15 ar
  28   14   19 ar
  29   15   16 ar
  30   15   22 1
  31   16   17 ar
  32   16   44 1
  33   17   18 ar
  34   17   21 1
  35   18   19 ar
  36   18   20 1
  37   19   45 1
  38   23   46 1
  39   23   47 1
  40   23   48 1
  41   24   28 2
  42   24   31 am
  43   24   25 1
  44   25   26 1
  45   25   49 1
  46   26   27 1
  47   26   29 1
  48   26   30 1
  49   27   50 1
  50   27   51 1
  51   27   52 1
  52   29   53 1
  53   29   54 1
  54   29   55 1
  55   30   56 1
  56   30   57 1
  57   30   58 1
  58   31   32 1
  59   31   59 1
  60   32   33 1
  61   32   34 1
  62   32   60 1
  63   33   61 1
  64   33   62 1
  65   33   63 1
  66   34   64 1
  67   34   65 1
  68   34   66 1

#	End of record

