#	Name: ASD01917808
#	Creating user name:	WinNT
#	Creation time:	15. 06. 2019 20:10

#	Modifying user name:	WinNT
#	Modification time:	15. 06. 2019 20:10

#	Program:	/corina/corina34_cracker 3.40 0067  02.08.2006

@<TRIPOS>MOLECULE
ASD01917808
  39   42    0    0    0
SMALL
NO_CHARGES


@<TRIPOS>ATOM
   1 C1             0.0124     1.2737    -0.1036 C.2     
   2 C2            -0.0024    -0.0730    -0.0926 C.2     
   3 C3            -1.2524    -0.9140    -0.0355 C.3     
   4 C4            -2.4148    -0.0408     0.4534 C.3     
   5 N5            -2.3846     1.2453    -0.2591 N.am    
   6 C6            -1.2265     2.1332    -0.0499 C.3     
   7 C7            -3.3897     1.6029    -1.0828 C.2     
   8 O8            -4.2824     0.8152    -1.3303 O.2     
   9 O9             1.2931     1.6612    -0.1631 O.3     
  10 C10            2.0503     0.5529    -0.1845 C.2     
  11 N11            1.2693    -0.4917    -0.1416 N.2     
  12 C12            3.5556     0.5204    -0.2482 C.3     
  13 O13            3.9742     0.4976    -1.6143 O.3     
  14 C14            5.3124     0.4668    -1.8491 C.ar    
  15 C15            5.7889     0.4434    -3.1518 C.ar    
  16 C16            7.1497     0.4122    -3.3879 C.ar    
  17 C17            8.0365     0.4041    -2.3271 C.ar    
  18 C18            7.5642     0.4269    -1.0279 C.ar    
  19 C19            6.2044     0.4645    -0.7866 C.ar    
  20 C20           -3.4069     2.9494    -1.6836 C.2     
  21 N21           -4.2538     3.3717    -2.5935 N.2     
  22 C22           -3.9624     4.6389    -2.8942 C.2     
  23 C23           -2.9000     5.0089    -2.1438 C.2     
  24 O24           -2.5608     3.9526    -1.3868 O.3     
  25 H25           -1.4786    -1.3001    -1.0294 H       
  26 H26           -1.1032    -1.7437     0.6554 H       
  27 H27           -3.3595    -0.5463     0.2530 H       
  28 H28           -2.3139     0.1337     1.5246 H       
  29 H29           -1.3006     2.6162     0.9245 H       
  30 H30           -1.1899     2.8868    -0.8366 H       
  31 H31            3.9592     1.4070     0.2407 H       
  32 H32            3.9215    -0.3724     0.2589 H       
  33 H33            5.0966     0.4493    -3.9807 H       
  34 H34            7.5211     0.3936    -4.4018 H       
  35 H35            9.1000     0.3797    -2.5138 H       
  36 H36            8.2589     0.4199    -0.2010 H       
  37 H37            5.8360     0.4823     0.2284 H       
  38 H38           -4.4824     5.2585    -3.6099 H       
  39 H39           -2.4169     5.9749    -2.1492 H       
@<TRIPOS>BOND
   1    1    2 2
   2    1    9 1
   3    1    6 1
   4    2    3 1
   5    2   11 1
   6    3    4 1
   7    3   25 1
   8    3   26 1
   9    4    5 1
  10    4   27 1
  11    4   28 1
  12    5    6 1
  13    5    7 am
  14    6   29 1
  15    6   30 1
  16    7    8 2
  17    7   20 1
  18    9   10 1
  19   10   11 2
  20   10   12 1
  21   12   13 1
  22   12   31 1
  23   12   32 1
  24   13   14 1
  25   14   15 ar
  26   14   19 ar
  27   15   16 ar
  28   15   33 1
  29   16   17 ar
  30   16   34 1
  31   17   18 ar
  32   17   35 1
  33   18   19 ar
  34   18   36 1
  35   19   37 1
  36   20   21 2
  37   20   24 1
  38   21   22 1
  39   22   23 2
  40   22   38 1
  41   23   24 1
  42   23   39 1

#	End of record

