#	Name: ASD06170247
#	Creating user name:	WinNT
#	Creation time:	15. 06. 2019 21:05

#	Modifying user name:	WinNT
#	Modification time:	15. 06. 2019 21:05

#	Program:	/corina/corina34_cracker 3.40 0067  02.08.2006

@<TRIPOS>MOLECULE
ASD06170247
  71   76    0    0    0
SMALL
NO_CHARGES


@<TRIPOS>ATOM
   1 N1             0.0776     0.7811    -0.1905 N.am    
   2 N2             0.3612    -0.5813    -0.0569 N.pl3   
   3 C3             1.6703    -0.8018    -0.2834 C.2     
   4 C4             2.2751     0.4063    -0.5701 C.2     
   5 C5             1.2188     1.4286    -0.5048 C.2     
   6 C6             3.6930     0.6271    -0.8794 C.2     
   7 O7             4.4648    -0.3135    -0.9002 O.2     
   8 N8             4.1400     1.8715    -1.1402 N.am    
   9 C9            -0.6200    -1.6156     0.2805 C.3     
  10 C10            2.3593    -2.1410    -0.2317 C.3     
  11 C11            5.5139     2.1090    -1.2703 C.ar    
  12 C12            6.3556     1.0947    -1.7067 C.ar    
  13 C13            7.7119     1.3303    -1.8352 C.ar    
  14 C14            8.2313     2.5817    -1.5277 C.ar    
  15 C15            7.3896     3.5940    -1.0915 C.ar    
  16 C16            6.0339     3.3608    -0.9683 C.ar    
  17 O17            9.5653     2.8140    -1.6540 O.3     
  18 N18           11.0931     3.1761    -5.4674 N.ar    
  19 C19           11.9158     3.3903    -4.4339 C.ar    
  20 C20           11.4310     3.2761    -3.1084 C.ar    
  21 C21           10.0746     2.9352    -2.9043 C.ar    
  22 C22            9.2823     2.7286    -4.0202 C.ar    
  23 C23            9.8321     2.8587    -5.2890 C.ar    
  24 O24            1.3488     2.6232    -0.6968 O.2     
  25 C25           -1.1797     1.3729    -0.0312 C.ar    
  26 C26           -1.9910     1.0070     1.0350 C.ar    
  27 C27           -3.2317     1.5935     1.1898 C.ar    
  28 C28           -3.6665     2.5442     0.2846 C.ar    
  29 C29           -2.8613     2.9104    -0.7784 C.ar    
  30 C30           -1.6172     2.3318    -0.9356 C.ar    
  31 C31           12.2956     3.5002    -2.0266 C.ar    
  32 C32           13.5965     3.8265    -2.2557 C.ar    
  33 C33           14.0859     3.9420    -3.5604 C.ar    
  34 C34           13.2627     3.7287    -4.6425 C.ar    
  35 C35           16.1925     4.4791    -2.5995 C.3     
  36 O36           15.3887     4.2693    -3.7622 O.3     
  37 C37           -2.2414    -3.3041    -0.6858 C.3     
  38 C38           -3.0117    -3.3663    -2.0272 C.3     
  39 C39           -2.6308    -2.0557    -2.7427 C.3     
  40 O40           -1.7733    -1.3182    -1.8555 O.3     
  41 C41           -1.1196    -2.2825    -1.0027 C.3     
  42 F42            8.5320     0.3439    -2.2593 F       
  43 H43            3.5101     2.6026    -1.2378 H       
  44 H44           -0.1533    -2.3641     0.9209 H       
  45 H45           -1.4606    -1.1617     0.8051 H       
  46 H46            2.3291    -2.6035    -1.2183 H       
  47 H47            3.3966    -2.0044     0.0738 H       
  48 H48            1.8506    -2.7839     0.4866 H       
  49 H49            5.9512     0.1221    -1.9452 H       
  50 H50            7.7939     4.5664    -0.8519 H       
  51 H51            5.3785     4.1511    -0.6332 H       
  52 H52            8.2410     2.4665    -3.9048 H       
  53 H53            9.2045     2.6951    -6.1526 H       
  54 H54           -1.6522     0.2643     1.7422 H       
  55 H55           -3.8632     1.3092     2.0185 H       
  56 H56           -4.6372     3.0014     0.4078 H       
  57 H57           -3.2041     3.6527    -1.4840 H       
  58 H58           -0.9887     2.6185    -1.7658 H       
  59 H59           11.9293     3.4144    -1.0143 H       
  60 H60           14.2587     3.9985    -1.4201 H       
  61 H61           13.6505     3.8204    -5.6463 H       
  62 H62           17.2085     4.7335    -2.9012 H       
  63 H63           15.7734     5.2948    -2.0104 H       
  64 H64           16.2086     3.5689    -1.9999 H       
  65 H65           -2.8843    -2.9397     0.1155 H       
  66 H66           -1.8210    -4.2775    -0.4332 H       
  67 H67           -2.6900    -4.2278    -2.6123 H       
  68 H68           -4.0863    -3.4050    -1.8485 H       
  69 H69           -2.1015    -2.2794    -3.6689 H       
  70 H70           -3.5286    -1.4761    -2.9573 H       
  71 H71           -0.2958    -2.7644    -1.5293 H       
@<TRIPOS>BOND
   1    1    2 1
   2    1    5 am
   3    1   25 1
   4    2    3 1
   5    2    9 1
   6    3    4 2
   7    3   10 1
   8    4    5 1
   9    4    6 1
  10    5   24 2
  11    6    7 2
  12    6    8 am
  13    8   11 1
  14    8   43 1
  15    9   41 1
  16    9   44 1
  17    9   45 1
  18   10   46 1
  19   10   47 1
  20   10   48 1
  21   11   12 ar
  22   11   16 ar
  23   12   13 ar
  24   12   49 1
  25   13   14 ar
  26   13   42 1
  27   14   15 ar
  28   14   17 1
  29   15   16 ar
  30   15   50 1
  31   16   51 1
  32   17   21 1
  33   18   19 ar
  34   18   23 ar
  35   19   20 ar
  36   19   34 ar
  37   20   21 ar
  38   20   31 ar
  39   21   22 ar
  40   22   23 ar
  41   22   52 1
  42   23   53 1
  43   25   26 ar
  44   25   30 ar
  45   26   27 ar
  46   26   54 1
  47   27   28 ar
  48   27   55 1
  49   28   29 ar
  50   28   56 1
  51   29   30 ar
  52   29   57 1
  53   30   58 1
  54   31   32 ar
  55   31   59 1
  56   32   33 ar
  57   32   60 1
  58   33   34 ar
  59   33   36 1
  60   34   61 1
  61   35   36 1
  62   35   62 1
  63   35   63 1
  64   35   64 1
  65   37   38 1
  66   37   41 1
  67   37   65 1
  68   37   66 1
  69   38   39 1
  70   38   67 1
  71   38   68 1
  72   39   40 1
  73   39   69 1
  74   39   70 1
  75   40   41 1
  76   41   71 1

#	End of record

