#	Name: ASD08150542
#	Creating user name:	WinNT
#	Creation time:	15. 06. 2019 21:16

#	Modifying user name:	WinNT
#	Modification time:	15. 06. 2019 21:16

#	Program:	/corina/corina34_cracker 3.40 0067  02.08.2006

@<TRIPOS>MOLECULE
ASD08150542
  30   32    0    0    0
SMALL
NO_CHARGES


@<TRIPOS>ATOM
   1 N1            -0.0155     1.2943     0.0092 N.2     
   2 C2             0.0021    -0.0041     0.0020 C.2     
   3 N3             1.1487    -0.7359    -0.0124 N.am    
   4 C4             2.3560    -0.1243    -0.0202 C.2     
   5 C5             2.3704     1.3449    -0.0129 C.ar    
   6 C6             3.5614     2.0709    -0.0195 C.ar    
   7 C7             3.5161     3.4494    -0.0117 C.ar    
   8 C8             2.2981     4.1155     0.0030 C.ar    
   9 C9             1.1115     3.4169     0.0097 C.ar    
  10 C10            1.1299     2.0209     0.0021 C.ar    
  11 O11            3.3901    -0.7667    -0.0323 O.2     
  12 C12            1.0792    -2.1356    -0.0188 C.ar    
  13 C13            1.0558    -2.8379     1.1815 C.ar    
  14 C14            0.9872    -4.2190     1.1705 C.ar    
  15 C15            0.9419    -4.9004    -0.0320 C.ar    
  16 C16            0.9654    -4.2042    -1.2262 C.ar    
  17 C17            1.0277    -2.8239    -1.2228 C.ar    
  18 F18            1.1006    -2.1719     2.3561 F       
  19 C19           -1.3145    -0.7373     0.0106 C.3     
  20 Cl20          -2.6665     0.4553     0.0300 Cl      
  21 Cl21           5.0887     1.2459    -0.0368 Cl      
  22 H22            4.4359     4.0155    -0.0168 H       
  23 H23            2.2811     5.1953     0.0096 H       
  24 H24            0.1704     3.9468     0.0215 H       
  25 H25            0.9694    -4.7658     2.1017 H       
  26 H26            0.8883    -5.9791    -0.0383 H       
  27 H27            0.9306    -4.7399    -2.1633 H       
  28 H28            1.0411    -2.2812    -2.1564 H       
  29 H29           -1.3904    -1.3582    -0.8820 H       
  30 H30           -1.3734    -1.3678     0.8979 H       
@<TRIPOS>BOND
   1    1    2 2
   2    1   10 1
   3    2    3 1
   4    2   19 1
   5    3    4 am
   6    3   12 1
   7    4    5 1
   8    4   11 2
   9    5    6 ar
  10    5   10 ar
  11    6    7 ar
  12    6   21 1
  13    7    8 ar
  14    7   22 1
  15    8    9 ar
  16    8   23 1
  17    9   10 ar
  18    9   24 1
  19   12   13 ar
  20   12   17 ar
  21   13   14 ar
  22   13   18 1
  23   14   15 ar
  24   14   25 1
  25   15   16 ar
  26   15   26 1
  27   16   17 ar
  28   16   27 1
  29   17   28 1
  30   19   20 1
  31   19   29 1
  32   19   30 1

#	End of record

