#	Name: ASD01410766
#	Creating user name:	WinNT
#	Creation time:	15. 06. 2019 19:18

#	Modifying user name:	WinNT
#	Modification time:	15. 06. 2019 19:18

#	Program:	/corina/corina34_cracker 3.40 0067  02.08.2006

@<TRIPOS>MOLECULE
ASD01410766
  91   96    0    0    0
SMALL
NO_CHARGES


@<TRIPOS>ATOM
   1 C1             2.2639     1.4373    -0.4739 C.3     
   2 C2             1.6464    -2.2131    -1.4865 C.3     
   3 C3             1.5423    -0.6754    -1.5973 C.3     
   4 N4             2.5666    -0.3292    -2.5971 N.am    
   5 C5             2.5151    -1.3822    -3.6236 C.3     
   6 C6             1.9404    -2.6416    -2.9445 C.3     
   7 O7             2.7213    -2.5870    -0.6223 O.3     
   8 C8             1.6185    -0.9536    -4.7565 C.2     
   9 O9             1.0697     0.1273    -4.7198 O.2     
  10 N10            1.4266    -1.7714    -5.8104 N.am    
  11 C11            0.4863    -1.3942    -6.8686 C.3     
  12 C12           -0.9618    -1.3250    -6.4570 C.2     
  13 N13           -1.3286    -1.7035    -5.2166 N.am    
  14 O14           -1.7971    -0.9288    -7.2420 O.2     
  15 S15           -2.8975    -1.5120    -4.7225 S.o2    
  16 C16           -3.8488    -2.6230    -5.7955 C.3     
  17 C17            0.9703    -0.3938    -7.9202 C.3     
  18 C18            0.7948    -1.8688    -8.2900 C.3     
  19 C19           -5.3733    -2.5933    -5.6690 C.3     
  20 C20           -4.6957    -1.9857    -6.8988 C.3     
  21 O21           -2.9035    -1.9864    -3.3830 O.2     
  22 O22           -3.1956    -0.1550    -5.0203 O.2     
  23 C23           -0.0375     0.5848    -8.4655 C.2     
  24 C24            0.1566     1.8726    -8.3233 C.2     
  25 C25            2.6514    -3.8132    -0.0479 C.ar    
  26 C26            3.6389    -4.2436     0.8691 C.ar    
  27 C27            1.6189    -4.6676    -0.3354 C.ar    
  28 C28            1.5689    -5.9250     0.2686 C.ar    
  29 N29            2.4945    -6.3214     1.1177 N.ar    
  30 C30            3.5259    -5.5319     1.4444 C.ar    
  31 O31            0.5413    -6.7591    -0.0258 O.3     
  32 C32            4.5068    -5.9654     2.3502 C.ar    
  33 C33            5.5560    -5.1323     2.6670 C.ar    
  34 C34            5.6550    -3.8598     2.0971 C.ar    
  35 C35            4.7196    -3.4184     1.2126 C.ar    
  36 C36            4.4115    -7.3346     2.9726 C.3     
  37 O37            6.5054    -5.5515     3.5435 O.3     
  38 C38            0.5359    -8.0345     0.6186 C.3     
  39 C39            1.8664    -0.0231    -0.2609 C.3     
  40 C40            3.5582     1.5135    -1.2843 C.3     
  41 C41            3.4075     0.7145    -2.5541 C.2     
  42 C42            3.8558     2.9732    -1.6331 C.3     
  43 C43            2.7050     3.5436    -2.4645 C.3     
  44 C44            4.0056     3.7850    -0.3449 C.3     
  45 O45            4.0485     1.0161    -3.5385 O.2     
  46 C46            7.5690    -4.6418     3.8318 C.3     
  47 C47           -0.6903    -8.8296     0.1656 C.3     
  48 H48            1.4691     1.9538    -1.0121 H       
  49 H49            2.4141     1.9162     0.4937 H       
  50 H50            0.7060    -2.6398    -1.1377 H       
  51 H51            0.5522    -0.3837    -1.9478 H       
  52 H52            3.5180    -1.5861    -3.9986 H       
  53 H53            2.6729    -3.4486    -2.9616 H       
  54 H54            1.0211    -2.9530    -3.4404 H       
  55 H55            1.9111    -2.6097    -5.8683 H       
  56 H56           -0.6736    -2.0881    -4.6133 H       
  57 H57           -3.3803    -3.5833    -6.0114 H       
  58 H58            1.9884    -0.0164    -7.8247 H       
  59 H59            1.6975    -2.4615    -8.4380 H       
  60 H60           -0.0496    -2.1308    -8.9276 H       
  61 H61           -5.9078    -3.5339    -5.8020 H       
  62 H62           -5.8046    -1.9062    -4.9410 H       
  63 H63           -4.6813    -0.8988    -6.9800 H       
  64 H64           -4.7845    -2.5265    -7.8410 H       
  65 H65           -0.9199     0.2246    -8.9736 H       
  66 H66           -0.5657     2.5739    -8.7141 H       
  67 H67            1.0389     2.2328    -7.8153 H       
  68 H68            0.8457    -4.3684    -1.0275 H       
  69 H69            6.4854    -3.2208     2.3590 H       
  70 H70            4.8072    -2.4331     0.7791 H       
  71 H71            4.9339    -8.0562     2.3446 H       
  72 H72            4.8681    -7.3164     3.9622 H       
  73 H73            3.3637    -7.6213     3.0611 H       
  74 H74            1.4413    -8.5799     0.3524 H       
  75 H75            0.4999    -7.8955     1.6991 H       
  76 H76            2.6908    -0.5570     0.2117 H       
  77 H77            0.9901    -0.0687     0.3858 H       
  78 H78            4.3799     1.1067    -0.6949 H       
  79 H79            4.7808     3.0283    -2.2070 H       
  80 H80            1.7800     3.4885    -1.8906 H       
  81 H81            2.9170     4.5835    -2.7130 H       
  82 H82            2.5983     2.9653    -3.3822 H       
  83 H83            3.1015     3.6840     0.2555 H       
  84 H84            4.8606     3.4146     0.2206 H       
  85 H85            4.1615     4.8349    -0.5932 H       
  86 H86            8.2558    -5.0997     4.5437 H       
  87 H87            8.1037    -4.4047     2.9121 H       
  88 H88            7.1588    -3.7270     4.2597 H       
  89 H89           -0.6944    -9.8025     0.6572 H       
  90 H90           -1.5957    -8.2842     0.4318 H       
  91 H91           -0.6543    -8.9686    -0.9149 H       
@<TRIPOS>BOND
   1    1   39 1
   2    1   40 1
   3    1   48 1
   4    1   49 1
   5    2    3 1
   6    2    7 1
   7    2    6 1
   8    2   50 1
   9    3    4 1
  10    3   39 1
  11    3   51 1
  12    4    5 1
  13    4   41 am
  14    5    6 1
  15    5    8 1
  16    5   52 1
  17    6   53 1
  18    6   54 1
  19    7   25 1
  20    8    9 2
  21    8   10 am
  22   10   11 1
  23   10   55 1
  24   11   12 1
  25   11   17 1
  26   11   18 1
  27   12   13 am
  28   12   14 2
  29   13   15 am
  30   13   56 1
  31   15   16 1
  32   15   21 2
  33   15   22 2
  34   16   19 1
  35   16   20 1
  36   16   57 1
  37   17   18 1
  38   17   23 1
  39   17   58 1
  40   18   59 1
  41   18   60 1
  42   19   20 1
  43   19   61 1
  44   19   62 1
  45   20   63 1
  46   20   64 1
  47   23   24 2
  48   23   65 1
  49   24   66 1
  50   24   67 1
  51   25   26 ar
  52   25   27 ar
  53   26   30 ar
  54   26   35 ar
  55   27   28 ar
  56   27   68 1
  57   28   29 ar
  58   28   31 1
  59   29   30 ar
  60   30   32 ar
  61   31   38 1
  62   32   33 ar
  63   32   36 1
  64   33   34 ar
  65   33   37 1
  66   34   35 ar
  67   34   69 1
  68   35   70 1
  69   36   71 1
  70   36   72 1
  71   36   73 1
  72   37   46 1
  73   38   47 1
  74   38   74 1
  75   38   75 1
  76   39   76 1
  77   39   77 1
  78   40   41 1
  79   40   42 1
  80   40   78 1
  81   41   45 2
  82   42   43 1
  83   42   44 1
  84   42   79 1
  85   43   80 1
  86   43   81 1
  87   43   82 1
  88   44   83 1
  89   44   84 1
  90   44   85 1
  91   46   86 1
  92   46   87 1
  93   46   88 1
  94   47   89 1
  95   47   90 1
  96   47   91 1

#	End of record

