#	Name: ASD03730308
#	Creating user name:	WinNT
#	Creation time:	15. 06. 2019 20:44

#	Modifying user name:	WinNT
#	Modification time:	15. 06. 2019 20:44

#	Program:	/corina/corina34_cracker 3.40 0067  02.08.2006

@<TRIPOS>MOLECULE
ASD03730308
  63   68    0    0    0
SMALL
NO_CHARGES


@<TRIPOS>ATOM
   1 N1            -0.5280     0.6978     2.3658 N.3     
   2 C2            -0.3185    -0.7690     2.3793 C.3     
   3 O3             0.6085    -0.9834     1.2998 O.3     
   4 C4             1.3297     0.1684     1.1695 C.ar    
   5 C5             0.6569     1.2117     1.8036 C.ar    
   6 C6             2.5414     0.4126     0.5455 C.ar    
   7 C7             3.0884     1.6923     0.5389 C.ar    
   8 C8             2.3958     2.7281     1.1580 C.ar    
   9 C9             1.1932     2.4888     1.7907 C.ar    
  10 O10            4.2663     2.1326     0.0103 O.3     
  11 C11            3.2098     3.9760     0.9473 C.3     
  12 C12            4.2142     3.5643    -0.1379 C.3     
  13 N13            2.5652     6.1196     1.4101 N.am    
  14 C14            2.3651     5.1382     0.5082 C.2     
  15 C15            3.8937     4.4336     2.2008 C.ar    
  16 C16            4.7848     3.8392     3.0768 C.ar    
  17 C17            5.2503     4.5467     4.1797 C.ar    
  18 C18            4.8205     5.8419     4.3954 C.ar    
  19 C19            3.9319     6.4361     3.5229 C.ar    
  20 C20            3.4562     5.7367     2.4157 C.ar    
  21 O21            1.6443     5.1841    -0.4661 O.2     
  22 C22           -0.7318     1.2130     3.7262 C.3     
  23 C23            0.5808     1.1243     4.5072 C.3     
  24 C24            0.3686     1.6609     5.9242 C.3     
  25 C25            1.6812     1.5722     6.7051 C.3     
  26 C26            1.4690     2.1088     8.1221 C.3     
  27 N27            5.2160     2.5294     2.8536 N.pl3   
  28 C28            6.1429     0.6765     4.1026 C.ar    
  29 C29            6.2335     1.9831     3.6449 C.ar    
  30 C30            7.3509     2.7444     3.9826 C.ar    
  31 C31            8.3318     2.1627     4.7662 C.ar    
  32 C32            8.1719     0.8493     5.1873 C.ar    
  33 N33            7.0987     0.1555     4.8478 N.ar    
  34 O34            9.1292     0.2703     5.9566 O.3     
  35 C35            8.9079    -1.0831     6.3584 C.3     
  36 H36            0.1159    -1.0863     3.3273 H       
  37 H37           -1.2557    -1.2927     2.1906 H       
  38 H38            3.0665    -0.3968     0.0602 H       
  39 H39            0.6691     3.2986     2.2765 H       
  40 H40            5.1915     4.0086     0.0509 H       
  41 H41            3.8483     3.8378    -1.1275 H       
  42 H42            2.1402     6.9905     1.3659 H       
  43 H43            5.9452     4.0851     4.8656 H       
  44 H44            5.1823     6.3923     5.2513 H       
  45 H45            3.6025     7.4493     3.6997 H       
  46 H46           -1.0554     2.2527     3.6763 H       
  47 H47           -1.4948     0.6189     4.2293 H       
  48 H48            0.9043     0.0846     4.5571 H       
  49 H49            1.3438     1.7185     4.0042 H       
  50 H50            0.0451     2.7006     5.8743 H       
  51 H51           -0.3944     1.0668     6.4272 H       
  52 H52            2.0047     0.5325     6.7550 H       
  53 H53            2.4442     2.1663     6.2021 H       
  54 H54            2.4042     2.0456     8.6785 H       
  55 H55            1.1455     3.1485     8.0722 H       
  56 H56            0.7061     1.5147     8.6251 H       
  57 H57            4.8105     1.9985     2.1504 H       
  58 H58            5.2784     0.0807     3.8494 H       
  59 H59            7.4491     3.7641     3.6405 H       
  60 H60            9.2113     2.7234     5.0467 H       
  61 H61            7.9883    -1.1436     6.9404 H       
  62 H62            8.8206    -1.7149     5.4744 H       
  63 H63            9.7460    -1.4232     6.9667 H       
@<TRIPOS>BOND
   1    1    2 1
   2    1    5 1
   3    1   22 1
   4    2    3 1
   5    2   36 1
   6    2   37 1
   7    3    4 1
   8    4    5 ar
   9    4    6 ar
  10    5    9 ar
  11    6    7 ar
  12    6   38 1
  13    7    8 ar
  14    7   10 1
  15    8    9 ar
  16    8   11 1
  17    9   39 1
  18   10   12 1
  19   11   12 1
  20   11   14 1
  21   11   15 1
  22   12   40 1
  23   12   41 1
  24   13   14 am
  25   13   20 1
  26   13   42 1
  27   14   21 2
  28   15   16 ar
  29   15   20 ar
  30   16   17 ar
  31   16   27 1
  32   17   18 ar
  33   17   43 1
  34   18   19 ar
  35   18   44 1
  36   19   20 ar
  37   19   45 1
  38   22   23 1
  39   22   46 1
  40   22   47 1
  41   23   24 1
  42   23   48 1
  43   23   49 1
  44   24   25 1
  45   24   50 1
  46   24   51 1
  47   25   26 1
  48   25   52 1
  49   25   53 1
  50   26   54 1
  51   26   55 1
  52   26   56 1
  53   27   29 1
  54   27   57 1
  55   28   29 ar
  56   28   33 ar
  57   28   58 1
  58   29   30 ar
  59   30   31 ar
  60   30   59 1
  61   31   32 ar
  62   31   60 1
  63   32   33 ar
  64   32   34 1
  65   34   35 1
  66   35   61 1
  67   35   62 1
  68   35   63 1

#	End of record

