#	Name: ASD01813566
#	Creating user name:	WinNT
#	Creation time:	15. 06. 2019 19:30

#	Modifying user name:	WinNT
#	Modification time:	15. 06. 2019 19:30

#	Program:	/corina/corina34_cracker 3.40 0067  02.08.2006

@<TRIPOS>MOLECULE
ASD01813566
  40   43    0    0    0
SMALL
NO_CHARGES


@<TRIPOS>ATOM
   1 C1            -0.0168     1.3825    -0.0457 C.ar    
   2 C2             0.0020    -0.0038    -0.0527 C.ar    
   3 C3             1.1975    -0.6932    -0.0491 C.ar    
   4 C4             2.4040     0.0044    -0.0387 C.ar    
   5 C5             2.3834     1.4096    -0.0320 C.ar    
   6 C6             1.1657     2.0946    -0.0354 C.ar    
   7 N7             3.6050    -0.6734    -0.0339 N.pl3   
   8 C8             4.7898    -0.0496    -0.0230 C.2     
   9 C9             4.8962     1.3266    -0.0153 C.2     
  10 C10            3.6660     2.1351    -0.0211 C.2     
  11 O11            3.7066     3.3531    -0.0152 O.2     
  12 C12            6.2155     1.9737    -0.0024 C.2     
  13 O13            6.3065     3.3187     0.0051 O.3     
  14 O14            7.2249     1.2962     0.0015 O.2     
  15 C15            3.5837    -2.1382    -0.0406 C.3     
  16 C16            3.4403    -2.6321    -1.4571 C.ar    
  17 N17            2.2394    -2.7349    -1.9922 N.ar    
  18 C18            2.0661    -3.1633    -3.2323 C.ar    
  19 C19            3.1556    -3.5218    -4.0158 C.ar    
  20 C20            4.4297    -3.4249    -3.4826 C.ar    
  21 C21            4.5690    -2.9659    -2.1806 C.ar    
  22 F22            1.1984    -2.0441    -0.0551 F       
  23 F23            1.1457     3.4455    -0.0294 F       
  24 N24            0.7741    -3.2563    -3.7585 N.pl3   
  25 C25           -0.3783    -2.9423    -3.1115 C.2     
  26 C26           -1.4025    -3.1713    -3.9651 C.2     
  27 C27           -0.8645    -3.6388    -5.1695 C.2     
  28 N28            0.4374    -3.6843    -5.0493 N.2     
  29 H29           -0.9606     1.9075    -0.0528 H       
  30 H30           -0.9295    -0.5504    -0.0608 H       
  31 H31            5.6921    -0.6430    -0.0199 H       
  32 H32            7.1957     3.6986     0.0135 H       
  33 H33            4.5134    -2.5171     0.3839 H       
  34 H34            2.7418    -2.4920     0.5545 H       
  35 H35            3.0107    -3.8717    -5.0272 H       
  36 H36            5.2956    -3.6966    -4.0681 H       
  37 H37            5.5488    -2.8782    -1.7347 H       
  38 H38           -0.4618    -2.5766    -2.0987 H       
  39 H39           -2.4509    -3.0204    -3.7541 H       
  40 H40           -1.4278    -3.9114    -6.0497 H       
@<TRIPOS>BOND
   1    1    2 ar
   2    1    6 ar
   3    1   29 1
   4    2    3 ar
   5    2   30 1
   6    3    4 ar
   7    3   22 1
   8    4    5 ar
   9    4    7 1
  10    5    6 ar
  11    5   10 1
  12    6   23 1
  13    7    8 1
  14    7   15 1
  15    8    9 2
  16    8   31 1
  17    9   10 1
  18    9   12 1
  19   10   11 2
  20   12   13 1
  21   12   14 2
  22   13   32 1
  23   15   16 1
  24   15   33 1
  25   15   34 1
  26   16   17 ar
  27   16   21 ar
  28   17   18 ar
  29   18   19 ar
  30   18   24 1
  31   19   20 ar
  32   19   35 1
  33   20   21 ar
  34   20   36 1
  35   21   37 1
  36   24   25 1
  37   24   28 1
  38   25   26 2
  39   25   38 1
  40   26   27 1
  41   26   39 1
  42   27   28 2
  43   27   40 1

#	End of record

