#	Name: ASD08150356
#	Creating user name:	WinNT
#	Creation time:	15. 06. 2019 21:15

#	Modifying user name:	WinNT
#	Modification time:	15. 06. 2019 21:15

#	Program:	/corina/corina34_cracker 3.40 0067  02.08.2006

@<TRIPOS>MOLECULE
ASD08150356
  54   59    0    0    0
SMALL
NO_CHARGES


@<TRIPOS>ATOM
   1 C1             1.0844    -0.2087     1.0475 C.3     
   2 N2             1.5925    -4.3450    -1.5620 N.am    
   3 C3             2.6940    -4.3731    -2.3369 C.2     
   4 C4             2.6861    -5.0335    -3.5824 C.2     
   5 C5             1.5605    -5.6533    -4.0198 C.2     
   6 C6             0.3996    -5.6258    -3.2070 C.ar    
   7 C7            -0.7936    -6.2532    -3.6132 C.ar    
   8 N8            -1.8631    -6.2263    -2.8615 N.ar    
   9 C9            -1.8883    -5.6072    -1.6716 C.ar    
  10 C10           -0.7325    -4.9498    -1.1828 C.ar    
  11 C11            0.4412    -4.9601    -1.9724 C.ar    
  12 C12           -0.7694    -4.3067     0.0583 C.ar    
  13 C13           -1.9404    -4.3197     0.7988 C.ar    
  14 C14           -3.0801    -4.9728     0.3087 C.ar    
  15 C15           -3.0597    -5.6026    -0.8964 C.ar    
  16 O16            3.7114    -3.8196    -1.9562 O.2     
  17 C17           -1.9883    -3.6401     2.1161 C.ar    
  18 C18            1.6275    -3.6876    -0.3267 C.ar    
  19 C19            1.9397    -4.3929     0.8285 C.ar    
  20 C20            1.9735    -3.7414     2.0455 C.ar    
  21 C21            1.6968    -2.3880     2.1150 C.ar    
  22 C22            1.3857    -1.6831     0.9670 C.ar    
  23 C23            1.3559    -2.3277    -0.2543 C.ar    
  24 C24            1.7341    -1.6803     3.4450 C.3     
  25 C25           -1.2946    -2.4360     2.3162 C.ar    
  26 N26           -1.3189    -1.8145     3.4679 N.ar    
  27 C27           -2.0049    -2.2946     4.5105 C.ar    
  28 C28           -2.7314    -3.5059     4.3876 C.ar    
  29 C29           -2.7235    -4.1866     3.1581 C.ar    
  30 C30           -2.0187    -1.6130     5.7400 C.ar    
  31 C31           -2.7238    -2.1212     6.7873 C.ar    
  32 C32           -3.4369    -3.3121     6.6644 C.ar    
  33 C33           -3.4483    -4.0009     5.4903 C.ar    
  34 H34            2.0077     0.3579     0.9266 H       
  35 H35            0.3853     0.0629     0.2566 H       
  36 H36            0.6425     0.0194     2.0174 H       
  37 H37            3.5784    -5.0459    -4.1907 H       
  38 H38            1.5496    -6.1598    -4.9736 H       
  39 H39           -0.8262    -6.7657    -4.5633 H       
  40 H40            0.1082    -3.8040     0.4369 H       
  41 H41           -3.9863    -4.9761     0.8963 H       
  42 H42           -3.9470    -6.1002    -1.2589 H       
  43 H43            2.1555    -5.4498     0.7749 H       
  44 H44            2.2161    -4.2892     2.9441 H       
  45 H45            1.1175    -1.7756    -1.1513 H       
  46 H46            2.7391    -1.2989     3.6256 H       
  47 H47            1.0270    -0.8509     3.4351 H       
  48 H48            1.4631    -2.3794     4.2363 H       
  49 H49           -0.7271    -2.0126     1.5006 H       
  50 H50           -3.2666    -5.1114     3.0306 H       
  51 H51           -1.4711    -0.6890     5.8531 H       
  52 H52           -2.7305    -1.5929     7.7292 H       
  53 H53           -3.9878    -3.6934     7.5115 H       
  54 H54           -4.0049    -4.9226     5.4067 H       
@<TRIPOS>BOND
   1    1   22 1
   2    1   34 1
   3    1   35 1
   4    1   36 1
   5    2    3 am
   6    2   11 1
   7    2   18 1
   8    3    4 1
   9    3   16 2
  10    4    5 2
  11    4   37 1
  12    5    6 1
  13    5   38 1
  14    6    7 ar
  15    6   11 ar
  16    7    8 ar
  17    7   39 1
  18    8    9 ar
  19    9   10 ar
  20    9   15 ar
  21   10   11 ar
  22   10   12 ar
  23   12   13 ar
  24   12   40 1
  25   13   14 ar
  26   13   17 1
  27   14   15 ar
  28   14   41 1
  29   15   42 1
  30   17   25 ar
  31   17   29 ar
  32   18   19 ar
  33   18   23 ar
  34   19   20 ar
  35   19   43 1
  36   20   21 ar
  37   20   44 1
  38   21   22 ar
  39   21   24 1
  40   22   23 ar
  41   23   45 1
  42   24   46 1
  43   24   47 1
  44   24   48 1
  45   25   26 ar
  46   25   49 1
  47   26   27 ar
  48   27   28 ar
  49   27   30 ar
  50   28   29 ar
  51   28   33 ar
  52   29   50 1
  53   30   31 ar
  54   30   51 1
  55   31   32 ar
  56   31   52 1
  57   32   33 ar
  58   32   53 1
  59   33   54 1

#	End of record

