#	Name: ASD01903293
#	Creating user name:	WinNT
#	Creation time:	15. 06. 2019 19:54

#	Modifying user name:	WinNT
#	Modification time:	15. 06. 2019 19:54

#	Program:	/corina/corina34_cracker 3.40 0067  02.08.2006

@<TRIPOS>MOLECULE
ASD01903293
  45   48    0    0    0
SMALL
NO_CHARGES


@<TRIPOS>ATOM
   1 C1             0.0313     1.3112     0.0785 C.ar    
   2 C2            -1.0993     1.6199    -0.6604 C.ar    
   3 C3            -1.0989     2.7501    -1.4632 C.ar    
   4 C4             0.0419     3.5362    -1.4975 C.ar    
   5 C5             1.1426     3.1653    -0.7280 C.ar    
   6 N6             1.1010     2.0748     0.0275 N.ar    
   7 C7             2.3696     3.9948    -0.7535 C.2     
   8 O8             2.4132     4.9942    -1.4435 O.2     
   9 N9             3.4376     3.6411    -0.0113 N.am    
  10 C10            4.6293     4.3681    -0.1092 C.ar    
  11 C11            4.5903     5.7428    -0.3045 C.ar    
  12 C12            5.7660     6.4596    -0.4010 C.ar    
  13 C13            6.9874     5.8067    -0.3029 C.ar    
  14 C14            7.0267     4.4327    -0.1077 C.ar    
  15 C15            5.8514     3.7161    -0.0054 C.ar    
  16 N16            8.1822     6.5348    -0.4069 N.am    
  17 C17            9.6355     8.2038    -0.9638 C.3     
  18 C18           10.3839     7.0903    -0.1719 C.3     
  19 C19            9.4142     5.9625    -0.3321 C.2     
  20 O20            9.6734     4.7794    -0.3841 O.2     
  21 C21           11.7025     9.5136    -1.0107 C.3     
  22 C22           12.4769     8.3112    -0.4822 C.3     
  23 C23           11.7589     6.9829    -0.7944 C.3     
  24 C24           10.2397     9.5181    -0.5295 C.3     
  25 C25            8.2219     7.8813    -0.5983 C.2     
  26 O26            7.2992     8.6607    -0.4937 O.2     
  27 H27            0.0327     0.4339     0.7085 H       
  28 H28           -1.9724     0.9860    -0.6118 H       
  29 H29           -1.9677     3.0119    -2.0489 H       
  30 H30            0.0773     4.4236    -2.1121 H       
  31 H31            3.3803     2.8826     0.5906 H       
  32 H32            3.6403     6.2507    -0.3812 H       
  33 H33            5.7357     7.5284    -0.5532 H       
  34 H34            7.9769     3.9250    -0.0317 H       
  35 H35            5.8820     2.6472     0.1465 H       
  36 H36            9.7870     8.0627    -2.0340 H       
  37 H37           10.4614     7.3683     0.8792 H       
  38 H38           12.1903    10.4267    -0.6694 H       
  39 H39           11.7167     9.4927    -2.1004 H       
  40 H40           13.4656     8.2964    -0.9408 H       
  41 H41           12.5896     8.4084     0.5976 H       
  42 H42           12.3054     6.1490    -0.3540 H       
  43 H43           11.6725     6.8481    -1.8726 H       
  44 H44            9.6991    10.3464    -0.9876 H       
  45 H45           10.2047     9.6038     0.5565 H       
@<TRIPOS>BOND
   1    1    2 ar
   2    1    6 ar
   3    1   27 1
   4    2    3 ar
   5    2   28 1
   6    3    4 ar
   7    3   29 1
   8    4    5 ar
   9    4   30 1
  10    5    6 ar
  11    5    7 1
  12    7    8 2
  13    7    9 am
  14    9   10 1
  15    9   31 1
  16   10   11 ar
  17   10   15 ar
  18   11   12 ar
  19   11   32 1
  20   12   13 ar
  21   12   33 1
  22   13   14 ar
  23   13   16 1
  24   14   15 ar
  25   14   34 1
  26   15   35 1
  27   16   25 am
  28   16   19 am
  29   17   18 1
  30   17   24 1
  31   17   25 1
  32   17   36 1
  33   18   19 1
  34   18   23 1
  35   18   37 1
  36   19   20 2
  37   21   22 1
  38   21   24 1
  39   21   38 1
  40   21   39 1
  41   22   23 1
  42   22   40 1
  43   22   41 1
  44   23   42 1
  45   23   43 1
  46   24   44 1
  47   24   45 1
  48   25   26 2

#	End of record

