#	Name: ASD00311062
#	Creating user name:	WinNT
#	Creation time:	15. 06. 2019 18:34

#	Modifying user name:	WinNT
#	Modification time:	15. 06. 2019 18:34

#	Program:	/corina/corina34_cracker 3.40 0067  02.08.2006

@<TRIPOS>MOLECULE
ASD00311062
  43   45    0    0    0
SMALL
NO_CHARGES


@<TRIPOS>ATOM
   1 C1            -0.0167     1.3775     0.0096 C.2     
   2 C2             0.0021    -0.0041     0.0020 C.2     
   3 C3             1.2586    -0.6767    -0.0136 C.2     
   4 C4             2.4315     0.0671    -0.0208 C.2     
   5 C5             2.3575     1.4748    -0.0126 C.2     
   6 N6             1.1650     2.0900     0.0022 N.am    
   7 C7            -1.3435    -0.5755     0.0123 C.2     
   8 C8            -2.3233     0.3267     0.0268 C.2     
   9 S9            -1.6791     1.9565     0.0358 S.3     
  10 O10            3.3825     2.1369    -0.0188 O.2     
  11 C11           -1.5961    -2.0354     0.0065 C.ar    
  12 C12           -2.2066    -2.6446     1.1023 C.ar    
  13 C13           -2.4392    -4.0046     1.0911 C.ar    
  14 C14           -2.0680    -4.7637    -0.0043 C.ar    
  15 C15           -1.4619    -4.1651    -1.0943 C.ar    
  16 C16           -1.2293    -2.8049    -1.0972 C.ar    
  17 C17            3.7477    -0.6124    -0.0366 C.ar    
  18 C18            4.5912    -0.4744    -1.1362 C.ar    
  19 C19            5.8265    -1.1162    -1.1435 C.ar    
  20 C20            6.2124    -1.8932    -0.0503 C.ar    
  21 C21            5.3717    -2.0262     1.0369 C.ar    
  22 C22            4.1474    -1.3874     1.0526 C.ar    
  23 C23            6.7293    -0.9750    -2.3091 C.2     
  24 N24            6.3677    -0.2499    -3.3286 N.2     
  25 N25            7.9516    -1.6108    -2.3148 N.pl3   
  26 O26            1.3084    -2.0292    -0.0209 O.3     
  27 Cl27          -4.0154    -0.0609     0.0415 Cl      
  28 H28            1.1328     3.0595     0.0073 H       
  29 H29           -2.4966    -2.0531     1.9582 H       
  30 H30           -2.9117    -4.4776     1.9393 H       
  31 H31           -2.2518    -5.8279    -0.0084 H       
  32 H32           -1.1740    -4.7628    -1.9465 H       
  33 H33           -0.7602    -2.3380    -1.9506 H       
  34 H34            4.2880     0.1278    -1.9800 H       
  35 H35            7.1703    -2.3919    -0.0549 H       
  36 H36            5.6746    -2.6290     1.8803 H       
  37 H37            3.4961    -1.4916     1.9078 H       
  38 H38            6.9589    -0.1574    -4.0920 H       
  39 H39            8.2209    -2.1509    -1.5554 H       
  40 H40            8.5428    -1.5183    -3.0782 H       
  41 H41            2.2056    -2.3898    -0.0315 H       
  42 Cl42          13.5428     8.0595     6.9582 Cl      
  43 H43           13.5428     9.4295     6.9582 H       
@<TRIPOS>BOND
   1    1    2 2
   2    1    6 1
   3    1    9 1
   4    2    3 1
   5    2    7 1
   6    3    4 2
   7    3   26 1
   8    4    5 1
   9    4   17 1
  10    5    6 am
  11    5   10 2
  12    6   28 1
  13    7    8 2
  14    7   11 1
  15    8    9 1
  16    8   27 1
  17   11   12 ar
  18   11   16 ar
  19   12   13 ar
  20   12   29 1
  21   13   14 ar
  22   13   30 1
  23   14   15 ar
  24   14   31 1
  25   15   16 ar
  26   15   32 1
  27   16   33 1
  28   17   18 ar
  29   17   22 ar
  30   18   19 ar
  31   18   34 1
  32   19   20 ar
  33   19   23 1
  34   20   21 ar
  35   20   35 1
  36   21   22 ar
  37   21   36 1
  38   22   37 1
  39   23   24 2
  40   23   25 1
  41   24   38 1
  42   25   39 1
  43   25   40 1
  44   26   41 1
  45   42   43 1

#	End of record

