#	Name: ASD01870719
#	Creating user name:	WinNT
#	Creation time:	15. 06. 2019 19:39

#	Modifying user name:	WinNT
#	Modification time:	15. 06. 2019 19:39

#	Program:	/corina/corina34_cracker 3.40 0067  02.08.2006

@<TRIPOS>MOLECULE
ASD01870719
  44   47    0    0    0
SMALL
NO_CHARGES


@<TRIPOS>ATOM
   1 C1            -0.0909     1.1876    -0.2229 C.ar    
   2 C2            -0.0719    -0.1955    -0.2664 C.ar    
   3 C3             1.1302    -0.8784    -0.2869 C.ar    
   4 C4             2.3281    -0.1889    -0.2640 C.ar    
   5 C5             1.1094     1.9041    -0.1996 C.ar    
   6 C6             1.3615     3.3544    -0.1537 C.2     
   7 C7             2.3332     1.2066    -0.2200 C.ar    
   8 C8             3.4539     2.1633    -0.1884 C.2     
   9 C9             2.8589     3.5507    -0.1467 C.3     
  10 C10            3.2861     4.3383    -1.3584 C.ar    
  11 C11            3.9338     5.5495    -1.2025 C.ar    
  12 C12            4.3256     6.2719    -2.3140 C.ar    
  13 C13            4.0701     5.7828    -3.5815 C.ar    
  14 C14            3.4232     4.5712    -3.7374 C.ar    
  15 C15            3.0352     3.8467    -2.6259 C.ar    
  16 O16            0.5222     4.2290    -0.1269 O.2     
  17 O17            4.6344     1.8876    -0.1957 O.2     
  18 C18            4.4964     6.5708    -4.7932 C.3     
  19 C19            5.8918     6.1642    -5.1916 C.2     
  20 C20            6.5399     6.7957    -6.3570 C.ar    
  21 O21            6.4816     5.3183    -4.5546 O.2     
  22 N22            5.8480     7.6332    -7.1229 N.ar    
  23 C23            7.8759     6.5137    -6.6430 C.ar    
  24 C24            8.4704     7.1153    -7.7411 C.ar    
  25 C25            7.7101     7.9776    -8.5151 C.ar    
  26 C26            6.3883     8.2165    -8.1692 C.ar    
  27 C27            8.6615     5.5688    -5.7705 C.3     
  28 Cl28          -1.6066     2.0338    -0.2043 Cl      
  29 H29           -1.0016    -0.7448    -0.2842 H       
  30 H30            1.1332    -1.9579    -0.3205 H       
  31 H31            3.2622    -0.7309    -0.2799 H       
  32 H32            3.1669     4.0639     0.7643 H       
  33 H33            4.1334     5.9315    -0.2122 H       
  34 H34            4.8311     7.2185    -2.1922 H       
  35 H35            3.2233     4.1893    -4.7277 H       
  36 H36            2.5331     2.8984    -2.7477 H       
  37 H37            3.8107     6.3707    -5.6165 H       
  38 H38            4.4812     7.6351    -4.5583 H       
  39 H39            9.5030     6.9169    -7.9878 H       
  40 H40            8.1440     8.4623    -9.3772 H       
  41 H41            5.7948     8.8913    -8.7682 H       
  42 H42            8.4623     4.5416    -6.0760 H       
  43 H43            9.7260     5.7788    -5.8741 H       
  44 H44            8.3643     5.7027    -4.7304 H       
@<TRIPOS>BOND
   1    1    2 ar
   2    1    5 ar
   3    1   28 1
   4    2    3 ar
   5    2   29 1
   6    3    4 ar
   7    3   30 1
   8    4    7 ar
   9    4   31 1
  10    5    7 ar
  11    5    6 1
  12    6    9 1
  13    6   16 2
  14    7    8 1
  15    8    9 1
  16    8   17 2
  17    9   10 1
  18    9   32 1
  19   10   11 ar
  20   10   15 ar
  21   11   12 ar
  22   11   33 1
  23   12   13 ar
  24   12   34 1
  25   13   14 ar
  26   13   18 1
  27   14   15 ar
  28   14   35 1
  29   15   36 1
  30   18   19 1
  31   18   37 1
  32   18   38 1
  33   19   20 1
  34   19   21 2
  35   20   23 ar
  36   20   22 ar
  37   22   26 ar
  38   23   24 ar
  39   23   27 1
  40   24   25 ar
  41   24   39 1
  42   25   26 ar
  43   25   40 1
  44   26   41 1
  45   27   42 1
  46   27   43 1
  47   27   44 1

#	End of record

