#	Name: ASD01148158
#	Creating user name:	WinNT
#	Creation time:	15. 06. 2019 19:02

#	Modifying user name:	WinNT
#	Modification time:	15. 06. 2019 19:02

#	Program:	/corina/corina34_cracker 3.40 0067  02.08.2006

@<TRIPOS>MOLECULE
ASD01148158
  51   54    0    0    0
SMALL
NO_CHARGES


@<TRIPOS>ATOM
   1 N1            -0.0161     1.3343     0.0094 N.pl3   
   2 C2             0.0021    -0.0041     0.0020 C.2     
   3 C3             1.1824    -0.7214    -0.0127 C.2     
   4 C4             2.4584     0.0090    -0.0209 C.2     
   5 C5             2.3928     1.4852    -0.0128 C.ar    
   6 N6             3.5017     2.2181    -0.0190 N.ar    
   7 C7             3.4497     3.5368    -0.0114 C.ar    
   8 C8             2.2241     4.2085     0.0034 C.ar    
   9 C9             1.0580     3.4931     0.0102 C.ar    
  10 C10            1.1311     2.0961     0.0025 C.ar    
  11 C11            1.1630    -2.1914    -0.0194 C.2     
  12 O12            0.1024    -2.7853    -0.0121 O.2     
  13 O13            2.3214    -2.8806    -0.0337 O.3     
  14 O14            3.5258    -0.5787    -0.0335 O.2     
  15 C15           -1.3117     2.0179     0.0191 C.3     
  16 C16           -1.7561     2.2481     1.4650 C.3     
  17 N17            4.6316     4.2686    -0.0179 N.pl3   
  18 C18            5.8817     6.3184     0.5920 C.3     
  19 C19            4.5864     5.7329    -0.0095 C.3     
  20 C20            4.6079     6.2907    -1.4486 C.3     
  21 C21            5.4141     7.5692    -1.3658 C.ar    
  22 C22            5.5004     8.6343    -2.2468 C.ar    
  23 C23            6.3149     9.7114    -1.9574 C.ar    
  24 C24            7.0470     9.7273    -0.7847 C.ar    
  25 C25            6.9622     8.6661     0.0950 C.ar    
  26 C26            6.1459     7.5851    -0.1934 C.ar    
  27 C27            2.2263    -4.3295    -0.0397 C.3     
  28 C28            3.6323    -4.9328    -0.0560 C.3     
  29 H29           -0.9356    -0.5399     0.0081 H       
  30 H30            2.1977     5.2881     0.0098 H       
  31 H31            0.1021     3.9958     0.0221 H       
  32 H32           -1.2201     2.9774    -0.4899 H       
  33 H33           -2.0508     1.4031    -0.4946 H       
  34 H34           -1.8477     1.2886     1.9740 H       
  35 H35           -1.0170     2.8629     1.9787 H       
  36 H36           -2.7201     2.7567     1.4722 H       
  37 H37            5.4861     3.8098    -0.0278 H       
  38 H38            5.7374     6.5507     1.6471 H       
  39 H39            6.7070     5.6172     0.4678 H       
  40 H40            3.7113     6.0889     0.5342 H       
  41 H41            5.0906     5.5821    -2.1216 H       
  42 H42            3.5939     6.5041    -1.7867 H       
  43 H43            4.9291     8.6225    -3.1633 H       
  44 H44            6.3803    10.5403    -2.6466 H       
  45 H45            7.6847    10.5686    -0.5569 H       
  46 H46            7.5344     8.6792     1.0109 H       
  47 H47            1.6983    -4.6627     0.8538 H       
  48 H48            1.6813    -4.6542    -0.9261 H       
  49 H49            4.1603    -4.5997    -0.9495 H       
  50 H50            4.1773    -4.6081     0.8304 H       
  51 H51            3.5609    -6.0205    -0.0604 H       
@<TRIPOS>BOND
   1    1    2 1
   2    1   10 1
   3    1   15 1
   4    2    3 2
   5    2   29 1
   6    3    4 1
   7    3   11 1
   8    4    5 1
   9    4   14 2
  10    5    6 ar
  11    5   10 ar
  12    6    7 ar
  13    7    8 ar
  14    7   17 1
  15    8    9 ar
  16    8   30 1
  17    9   10 ar
  18    9   31 1
  19   11   12 2
  20   11   13 1
  21   13   27 1
  22   15   16 1
  23   15   32 1
  24   15   33 1
  25   16   34 1
  26   16   35 1
  27   16   36 1
  28   17   19 1
  29   17   37 1
  30   18   19 1
  31   18   26 1
  32   18   38 1
  33   18   39 1
  34   19   20 1
  35   19   40 1
  36   20   21 1
  37   20   41 1
  38   20   42 1
  39   21   22 ar
  40   21   26 ar
  41   22   23 ar
  42   22   43 1
  43   23   24 ar
  44   23   44 1
  45   24   25 ar
  46   24   45 1
  47   25   26 ar
  48   25   46 1
  49   27   28 1
  50   27   47 1
  51   27   48 1
  52   28   49 1
  53   28   50 1
  54   28   51 1

#	End of record

