#	Name: ASD01870262
#	Creating user name:	WinNT
#	Creation time:	15. 06. 2019 19:38

#	Modifying user name:	WinNT
#	Modification time:	15. 06. 2019 19:38

#	Program:	/corina/corina34_cracker 3.40 0067  02.08.2006

@<TRIPOS>MOLECULE
ASD01870262
  55   60    0    0    0
SMALL
NO_CHARGES


@<TRIPOS>ATOM
   1 C1            -0.0093     1.3833    -0.2752 C.ar    
   2 C2             0.0077    -0.0079    -0.2130 C.ar    
   3 C3             1.1815    -0.6933    -0.1089 C.ar    
   4 C4             2.3922     0.0109    -0.0640 C.ar    
   5 C5             2.3749     1.4304    -0.1281 C.ar    
   6 C6             1.1482     2.1017    -0.2343 C.ar    
   7 C7             3.6335    -0.6434     0.0435 C.ar    
   8 N8             4.7448     0.0439     0.0837 N.ar    
   9 C9             4.7751     1.3822     0.0262 C.ar    
  10 C10            3.5998     2.1081    -0.0808 C.ar    
  11 C11            5.9045     2.3374     0.0561 C.2     
  12 N12            5.4512     3.6007    -0.0287 N.am    
  13 C13            3.9898     3.5603    -0.1203 C.3     
  14 C14            6.2776     4.8103    -0.0289 C.3     
  15 C15            7.0791     4.8807     1.2725 C.3     
  16 C16            7.9789     3.6483     1.3846 C.3     
  17 C17            8.9403     3.6089     0.1950 C.3     
  18 C18            8.1389     3.5385    -1.1064 C.3     
  19 C19            7.2391     4.7709    -1.2185 C.3     
  20 C20            3.6819    -2.1480     0.1133 C.3     
  21 C21            3.7877    -2.7124    -1.2800 C.ar    
  22 C22            5.0252    -2.9326    -1.8531 C.ar    
  23 N23            5.1265    -3.4263    -3.0720 N.ar    
  24 C24            4.0605    -3.7283    -3.7887 C.ar    
  25 C25            2.7881    -3.5346    -3.2799 C.ar    
  26 C26            2.6436    -3.0226    -2.0004 C.ar    
  27 O27            7.0757     2.0247     0.1451 O.2     
  28 O28            6.1811     4.9175     2.3835 O.3     
  29 C29            3.2250     4.5635    -0.9813 C.3     
  30 C30            3.1274     4.6312     0.5446 C.3     
  31 Cl31           4.2563    -4.3753    -5.3877 Cl      
  32 H32           -0.9535     1.9004    -0.3616 H       
  33 H33           -0.9243    -0.5526    -0.2475 H       
  34 H34            1.1784    -1.7722    -0.0610 H       
  35 H35            1.1209     3.1802    -0.2841 H       
  36 H36            5.6366     5.6883    -0.1088 H       
  37 H37            7.6940     5.7807     1.2723 H       
  38 H38            8.5499     3.6985     2.3117 H       
  39 H39            7.3640     2.7483     1.3848 H       
  40 H40            9.5552     4.5089     0.1949 H       
  41 H41            9.5813     2.7310     0.2749 H       
  42 H42            8.8238     3.5105    -1.9538 H       
  43 H43            7.5240     2.6385    -1.1062 H       
  44 H44            6.6681     4.7208    -2.1456 H       
  45 H45            7.8539     5.6709    -1.2186 H       
  46 H46            4.5490    -2.4569     0.6972 H       
  47 H47            2.7735    -2.5192     0.5877 H       
  48 H48            5.9204    -2.6973    -1.2966 H       
  49 H49            1.9191    -3.7829    -3.8710 H       
  50 H50            1.6632    -2.8612    -1.5772 H       
  51 H51            6.6211     4.9627     3.2434 H       
  52 H52            3.8028     5.3393    -1.4837 H       
  53 H53            2.3540     4.1986    -1.5257 H       
  54 H54            2.1923     4.3109     1.0040 H       
  55 H55            3.6411     5.4515     1.0460 H       
@<TRIPOS>BOND
   1    1    2 ar
   2    1    6 ar
   3    1   32 1
   4    2    3 ar
   5    2   33 1
   6    3    4 ar
   7    3   34 1
   8    4    5 ar
   9    4    7 ar
  10    5    6 ar
  11    5   10 ar
  12    6   35 1
  13    7    8 ar
  14    7   20 1
  15    8    9 ar
  16    9   10 ar
  17    9   11 1
  18   10   13 1
  19   11   12 am
  20   11   27 2
  21   12   13 1
  22   12   14 1
  23   13   29 1
  24   13   30 1
  25   14   15 1
  26   14   19 1
  27   14   36 1
  28   15   16 1
  29   15   28 1
  30   15   37 1
  31   16   17 1
  32   16   38 1
  33   16   39 1
  34   17   18 1
  35   17   40 1
  36   17   41 1
  37   18   19 1
  38   18   42 1
  39   18   43 1
  40   19   44 1
  41   19   45 1
  42   20   21 1
  43   20   46 1
  44   20   47 1
  45   21   22 ar
  46   21   26 ar
  47   22   23 ar
  48   22   48 1
  49   23   24 ar
  50   24   25 ar
  51   24   31 1
  52   25   26 ar
  53   25   49 1
  54   26   50 1
  55   28   51 1
  56   29   30 1
  57   29   52 1
  58   29   53 1
  59   30   54 1
  60   30   55 1

#	End of record

