#	Name: ASD04590378
#	Creating user name:	WinNT
#	Creation time:	15. 06. 2019 20:50

#	Modifying user name:	WinNT
#	Modification time:	15. 06. 2019 20:50

#	Program:	/corina/corina34_cracker 3.40 0067  02.08.2006

@<TRIPOS>MOLECULE
ASD04590378
  42   45    0    0    0
SMALL
NO_CHARGES


@<TRIPOS>ATOM
   1 C1            -0.0167     1.3834     0.0096 C.ar    
   2 C2             0.0021    -0.0041     0.0020 C.ar    
   3 C3            -2.3904    -0.0461     0.0256 C.ar    
   4 C4            -2.4092     1.3597     0.0439 C.ar    
   5 C5            -1.2148     2.0663     0.0305 C.ar    
   6 N6            -3.6798    -0.4642     0.0444 N.2     
   7 C7            -4.4793     0.5746     0.0728 C.2     
   8 N8            -3.7408     1.7275     0.0737 N.pl3   
   9 C9            -5.9552     0.5107     0.0987 C.2     
  10 C10           -6.7364    -0.6681     0.0978 C.2     
  11 C11           -8.0405    -0.2996     0.1262 C.2     
  12 N12           -8.0894     1.0584     0.1445 N.pl3   
  13 N13           -6.7754     1.5427     0.1327 N.2     
  14 N14           -6.2485    -1.9846     0.0716 N.am    
  15 C15           -7.1086    -3.0222     0.0739 C.2     
  16 O16           -8.3072    -2.8184     0.0986 O.2     
  17 C17           -6.5959    -4.4053     0.0463 C.ar    
  18 C18           -6.3738    -5.0490    -1.1758 C.ar    
  19 C19           -5.8929    -6.3448    -1.1924 C.ar    
  20 C20           -5.6319    -7.0050    -0.0054 C.ar    
  21 C21           -5.8491    -6.3763     1.2072 C.ar    
  22 C22           -6.3237    -5.0786     1.2422 C.ar    
  23 F23           -6.6290    -4.4062    -2.3363 F       
  24 F24           -6.5348    -4.4661     2.4277 F       
  25 C25           -1.1632    -0.7168     0.0098 C.ar    
  26 C26            1.2811     2.1494     0.0014 C.3     
  27 C27            1.3215    -0.7320    -0.0155 C.3     
  28 H28           -1.2234     3.1462     0.0367 H       
  29 H29           -4.0876     2.6332     0.0915 H       
  30 H30           -8.8899    -0.9667     0.1324 H       
  31 H31           -8.8948     1.5986     0.1660 H       
  32 H32           -5.2924    -2.1472     0.0518 H       
  33 H33           -5.7209    -6.8432    -2.1349 H       
  34 H34           -5.2566    -8.0175    -0.0255 H       
  35 H35           -5.6433    -6.8993     2.1294 H       
  36 H36           -1.1370    -1.7965     0.0034 H       
  37 H37            1.5841     2.3396    -1.0282 H       
  38 H38            1.1466     3.0977     0.5216 H       
  39 H39            2.0512     1.5649     0.5047 H       
  40 H40            1.6502    -0.9130     1.0079 H       
  41 H41            1.2044    -1.6840    -0.5333 H       
  42 H42            2.0642    -0.1255    -0.5338 H       
@<TRIPOS>BOND
   1    1    2 ar
   2    1   26 1
   3    1    5 ar
   4    2   25 ar
   5    2   27 1
   6    3    4 ar
   7    3    6 1
   8    3   25 ar
   9    4    5 ar
  10    4    8 1
  11    5   28 1
  12    6    7 2
  13    7    8 1
  14    7    9 1
  15    8   29 1
  16    9   10 1
  17    9   13 2
  18   10   11 2
  19   10   14 1
  20   11   12 1
  21   11   30 1
  22   12   13 1
  23   12   31 1
  24   14   15 am
  25   14   32 1
  26   15   16 2
  27   15   17 1
  28   17   18 ar
  29   17   22 ar
  30   18   19 ar
  31   18   23 1
  32   19   20 ar
  33   19   33 1
  34   20   21 ar
  35   20   34 1
  36   21   22 ar
  37   21   35 1
  38   22   24 1
  39   25   36 1
  40   26   37 1
  41   26   38 1
  42   26   39 1
  43   27   40 1
  44   27   41 1
  45   27   42 1

#	End of record

