#	Name: ASD04550020
#	Creating user name:	WinNT
#	Creation time:	15. 06. 2019 20:49

#	Modifying user name:	WinNT
#	Modification time:	15. 06. 2019 20:49

#	Program:	/corina/corina34_cracker 3.40 0067  02.08.2006

@<TRIPOS>MOLECULE
ASD04550020
  34   35    0    0    0
SMALL
NO_CHARGES


@<TRIPOS>ATOM
   1 C1            -0.0167     1.3779     0.0096 C.ar    
   2 C2             0.0021    -0.0041     0.0020 C.ar    
   3 C3            -1.1857    -0.7116     0.0095 C.ar    
   4 C4            -2.3919    -0.0369     0.0251 C.ar    
   5 C5            -2.4106     1.3455     0.0336 C.ar    
   6 C6            -1.2232     2.0528     0.0305 C.ar    
   7 C7            -3.7258     2.0812     0.0501 C.3     
   8 C8            -4.5344     1.7082    -1.1941 C.3     
   9 C9             1.2780     2.1491     0.0014 C.3     
  10 C10            1.6960     2.4138    -1.4221 C.ar    
  11 C11            1.2752     3.5637    -2.0636 C.ar    
  12 C12            1.6586     3.8065    -3.3693 C.ar    
  13 C13            2.4632     2.8996    -4.0334 C.ar    
  14 C14            2.8848     1.7501    -3.3916 C.ar    
  15 C15            2.5049     1.5094    -2.0844 C.ar    
  16 C16           -4.4997     1.6990     1.2854 C.2     
  17 O17           -4.0314     0.9101     2.0717 O.2     
  18 O18           -5.7093     2.2349     1.5121 O.3     
  19 H19            0.9446    -0.5313    -0.0101 H       
  20 H20           -1.1711    -1.7915     0.0029 H       
  21 H21           -3.3198    -0.5895     0.0302 H       
  22 H22           -1.2378     3.1327     0.0372 H       
  23 H23           -3.5412     3.1554     0.0549 H       
  24 H24           -5.4856     2.2403    -1.1822 H       
  25 H25           -3.9746     1.9847    -2.0876 H       
  26 H26           -4.7190     0.6340    -1.1989 H       
  27 H27            1.1397     3.0969     0.5217 H       
  28 H28            2.0505     1.5677     0.5048 H       
  29 H29            0.6466     4.2722    -1.5447 H       
  30 H30            1.3292     4.7045    -3.8707 H       
  31 H31            2.7621     3.0889    -5.0538 H       
  32 H32            3.5131     1.0414    -3.9106 H       
  33 H33            2.8343     0.6114    -1.5830 H       
  34 H34           -6.1676     1.9592     2.3178 H       
@<TRIPOS>BOND
   1    1    2 ar
   2    1    9 1
   3    1    6 ar
   4    2    3 ar
   5    2   19 1
   6    3    4 ar
   7    3   20 1
   8    4    5 ar
   9    4   21 1
  10    5    6 ar
  11    5    7 1
  12    6   22 1
  13    7    8 1
  14    7   16 1
  15    7   23 1
  16    8   24 1
  17    8   25 1
  18    8   26 1
  19    9   10 1
  20    9   27 1
  21    9   28 1
  22   10   11 ar
  23   10   15 ar
  24   11   12 ar
  25   11   29 1
  26   12   13 ar
  27   12   30 1
  28   13   14 ar
  29   13   31 1
  30   14   15 ar
  31   14   32 1
  32   15   33 1
  33   16   17 2
  34   16   18 1
  35   18   34 1

#	End of record

