#	Name: ASD03730855
#	Creating user name:	WinNT
#	Creation time:	15. 06. 2019 20:44

#	Modifying user name:	WinNT
#	Modification time:	15. 06. 2019 20:44

#	Program:	/corina/corina34_cracker 3.40 0067  02.08.2006

@<TRIPOS>MOLECULE
ASD03730855
  65   71    0    0    0
SMALL
NO_CHARGES


@<TRIPOS>ATOM
   1 C1             1.5573    -1.2864    -2.4137 C.2     
   2 C2             0.7041    -1.1969    -1.2096 C.ar    
   3 C3             1.2056    -0.6325    -0.0354 C.ar    
   4 C4             0.4041    -0.5515     1.0843 C.ar    
   5 C5            -0.8942    -1.0286     1.0455 C.ar    
   6 C6            -1.3974    -1.5891    -0.1148 C.ar    
   7 C7            -0.6081    -1.6709    -1.2436 C.ar    
   8 O8             2.6651    -0.7862    -2.4121 O.2     
   9 N9             1.1089    -1.9275    -3.5111 N.am    
  10 C10            1.9544    -2.0163    -4.7043 C.3     
  11 C11            1.2251    -2.7774    -5.7812 C.ar    
  12 C12            0.4233    -2.1023    -6.6825 C.ar    
  13 C13           -0.2457    -2.8005    -7.6704 C.ar    
  14 C14           -0.1126    -4.1736    -7.7573 C.ar    
  15 C15            0.6899    -4.8486    -6.8565 C.ar    
  16 C16            1.3624    -4.1500    -5.8714 C.ar    
  17 C17           -0.8427    -4.9349    -8.8336 C.3     
  18 F18           -0.0364    -5.0193    -9.9738 F       
  19 F19           -1.1382    -6.2231    -8.3750 F       
  20 F20           -2.0313    -4.2689    -9.1512 F       
  21 C21            2.6196    -0.1133     0.0088 C.3     
  22 O22            0.0928    -1.7703     6.5327 O.3     
  23 C23            0.0950    -1.6641     7.9686 C.3     
  24 O24            1.4935    -1.6023     8.3051 O.3     
  25 C25            2.1096    -1.0652     7.2111 C.ar    
  26 C26            1.2482    -1.1698     6.1214 C.ar    
  27 C27            3.3557    -0.4852     7.0546 C.ar    
  28 C28            3.7588    -0.0048     5.8123 C.ar    
  29 C29            2.8928    -0.1223     4.7294 C.ar    
  30 C30            1.6474    -0.6946     4.8835 C.ar    
  31 O31            4.9220     0.6087     5.4504 O.3     
  32 C32            3.6136     0.4527     3.5395 C.3     
  33 C33            5.0688     0.5419     4.0188 C.3     
  34 N34            2.9248     0.3575     1.3621 N.am    
  35 C35            3.4778    -0.4129     2.3201 C.2     
  36 C36            3.0735     1.7932     3.1379 C.ar    
  37 C37            2.9244     2.9944     3.7945 C.ar    
  38 C38            2.3780     4.0812     3.1354 C.ar    
  39 C39            1.9815     3.9580     1.8161 C.ar    
  40 C40            2.1280     2.7567     1.1544 C.ar    
  41 C41            2.6774     1.6574     1.8099 C.ar    
  42 O42            3.8025    -1.5770     2.2171 O.2     
  43 H43            0.7909    -0.1151     1.9933 H       
  44 H44           -1.5174    -0.9635     1.9252 H       
  45 H45           -2.4115    -1.9596    -0.1385 H       
  46 H46           -1.0034    -2.1050    -2.1501 H       
  47 H47            0.2264    -2.3301    -3.5110 H       
  48 H48            2.1853    -1.0127    -5.0615 H       
  49 H49            2.8801    -2.5354    -4.4558 H       
  50 H50            0.3193    -1.0295    -6.6146 H       
  51 H51           -0.8727    -2.2731    -8.3741 H       
  52 H52            0.7937    -5.9215    -6.9242 H       
  53 H53            1.9923    -4.6769    -5.1699 H       
  54 H54            3.3090    -0.9131    -0.2617 H       
  55 H55            2.7260     0.7118    -0.6955 H       
  56 H56           -0.4159    -0.7551     8.2861 H       
  57 H57           -0.3687    -2.5421     8.4182 H       
  58 H58            4.0201    -0.4047     7.9022 H       
  59 H59            0.9819    -0.7725     4.0364 H       
  60 H60            5.5478     1.4433     3.6364 H       
  61 H61            5.6274    -0.3477     3.7280 H       
  62 H62            3.2345     3.0882     4.8247 H       
  63 H63            2.2617     5.0237     3.6497 H       
  64 H64            1.5549     4.8064     1.3017 H       
  65 H65            1.8155     2.6681     0.1244 H       
@<TRIPOS>BOND
   1    1    2 1
   2    1    8 2
   3    1    9 am
   4    2    3 ar
   5    2    7 ar
   6    3    4 ar
   7    3   21 1
   8    4    5 ar
   9    4   43 1
  10    5    6 ar
  11    5   44 1
  12    6    7 ar
  13    6   45 1
  14    7   46 1
  15    9   10 1
  16    9   47 1
  17   10   11 1
  18   10   48 1
  19   10   49 1
  20   11   12 ar
  21   11   16 ar
  22   12   13 ar
  23   12   50 1
  24   13   14 ar
  25   13   51 1
  26   14   15 ar
  27   14   17 1
  28   15   16 ar
  29   15   52 1
  30   16   53 1
  31   17   18 1
  32   17   19 1
  33   17   20 1
  34   21   34 1
  35   21   54 1
  36   21   55 1
  37   22   23 1
  38   22   26 1
  39   23   24 1
  40   23   56 1
  41   23   57 1
  42   24   25 1
  43   25   26 ar
  44   25   27 ar
  45   26   30 ar
  46   27   28 ar
  47   27   58 1
  48   28   29 ar
  49   28   31 1
  50   29   30 ar
  51   29   32 1
  52   30   59 1
  53   31   33 1
  54   32   33 1
  55   32   35 1
  56   32   36 1
  57   33   60 1
  58   33   61 1
  59   34   35 am
  60   34   41 1
  61   35   42 2
  62   36   37 ar
  63   36   41 ar
  64   37   38 ar
  65   37   62 1
  66   38   39 ar
  67   38   63 1
  68   39   40 ar
  69   39   64 1
  70   40   41 ar
  71   40   65 1

#	End of record

