#	Name: ASD02039150
#	Creating user name:	WinNT
#	Creation time:	15. 06. 2019 20:17

#	Modifying user name:	WinNT
#	Modification time:	15. 06. 2019 20:17

#	Program:	/corina/corina34_cracker 3.40 0067  02.08.2006

@<TRIPOS>MOLECULE
ASD02039150
  42   45    0    0    0
SMALL
NO_CHARGES


@<TRIPOS>ATOM
   1 N1            -0.0009     1.2803     0.2562 N.2     
   2 C2             0.0074    -0.0199     0.1294 C.2     
   3 N3             1.2987    -0.4143     0.1381 N.2     
   4 C4             2.0014     0.6837     0.2712 C.2     
   5 O5             1.1345     1.6988     0.3387 O.3     
   6 C6             3.5037     0.7832     0.3360 C.3     
   7 O7             4.0277     0.9457    -0.9835 O.3     
   8 C8             5.3779     1.0520    -1.1027 C.ar    
   9 N9            -1.1051    -0.8435     0.0088 N.pl3   
  10 C10           -2.3896    -0.3053     0.1297 C.ar    
  11 C11           -3.4559    -0.8917    -0.5399 C.ar    
  12 C12           -4.7236    -0.3574    -0.4183 C.ar    
  13 C13           -4.9320     0.7601     0.3690 C.ar    
  14 C14           -3.8726     1.3464     1.0371 C.ar    
  15 C15           -2.6034     0.8138     0.9243 C.ar    
  16 C16            6.1801     1.0002     0.0344 C.ar    
  17 C17            7.5499     1.1058    -0.0673 C.ar    
  18 C18            8.1435     1.2658    -1.3147 C.ar    
  19 C19            7.3364     1.3187    -2.4668 C.ar    
  20 C20            5.9473     1.2051    -2.3511 C.ar    
  21 N21            9.5140     1.3745    -1.4375 N.am    
  22 C22           10.0902     1.5302    -2.6421 C.2     
  23 C23            9.3257     1.5897    -3.8269 C.2     
  24 C24            7.9746     1.4885    -3.7736 C.2     
  25 O25           11.3036     1.6228    -2.7128 O.2     
  26 C26           -6.3166     1.3407     0.4990 C.3     
  27 H27            3.7850     1.6411     0.9468 H       
  28 H28            3.9094    -0.1265     0.7786 H       
  29 H29           -0.9906    -1.7919    -0.1593 H       
  30 H30           -3.2938    -1.7644    -1.1553 H       
  31 H31           -5.5531    -0.8127    -0.9390 H       
  32 H32           -4.0387     2.2194     1.6509 H       
  33 H33           -1.7765     1.2720     1.4466 H       
  34 H34            5.7240     0.8764     1.0055 H       
  35 H35            8.1624     1.0647     0.8212 H       
  36 H36            5.3235     1.2447    -3.2319 H       
  37 H37           10.0694     1.3383    -0.6431 H       
  38 H38            9.8186     1.7158    -4.7795 H       
  39 H39            7.3820     1.5323    -4.6755 H       
  40 H40           -6.8279     0.8758     1.3419 H       
  41 H41           -6.2457     2.4157     0.6650 H       
  42 H42           -6.8776     1.1506    -0.4160 H       
@<TRIPOS>BOND
   1    1    2 2
   2    1    5 1
   3    2    3 1
   4    2    9 1
   5    3    4 2
   6    4    5 1
   7    4    6 1
   8    6    7 1
   9    6   27 1
  10    6   28 1
  11    7    8 1
  12    8   16 ar
  13    8   20 ar
  14    9   10 1
  15    9   29 1
  16   10   11 ar
  17   10   15 ar
  18   11   12 ar
  19   11   30 1
  20   12   13 ar
  21   12   31 1
  22   13   14 ar
  23   13   26 1
  24   14   15 ar
  25   14   32 1
  26   15   33 1
  27   16   17 ar
  28   16   34 1
  29   17   18 ar
  30   17   35 1
  31   18   19 ar
  32   18   21 1
  33   19   20 ar
  34   19   24 1
  35   20   36 1
  36   21   22 am
  37   21   37 1
  38   22   23 1
  39   22   25 2
  40   23   24 2
  41   23   38 1
  42   24   39 1
  43   26   40 1
  44   26   41 1
  45   26   42 1

#	End of record

