#	Name: ASD01913714
#	Creating user name:	WinNT
#	Creation time:	15. 06. 2019 20:02

#	Modifying user name:	WinNT
#	Modification time:	15. 06. 2019 20:02

#	Program:	/corina/corina34_cracker 3.40 0067  02.08.2006

@<TRIPOS>MOLECULE
ASD01913714
  42   44    0    0    0
SMALL
NO_CHARGES


@<TRIPOS>ATOM
   1 O1            -0.0163     1.3508     0.0095 O.3     
   2 C2             0.0021    -0.0041     0.0020 C.ar    
   3 N3             1.1629    -0.6408    -0.0125 N.ar    
   4 C4             1.2330    -1.9556    -0.0202 C.ar    
   5 C5             0.0719    -2.7293    -0.0137 C.ar    
   6 C6            -1.1744    -2.0856     0.0016 C.ar    
   7 C7            -1.1994    -0.7064     0.0154 C.ar    
   8 C8             0.1538    -4.2032    -0.0234 C.2     
   9 N9             1.3565    -4.8112    -0.0386 N.am    
  10 O10           -0.8637    -4.8686    -0.0177 O.2     
  11 C11            1.4378    -6.2739    -0.0482 C.3     
  12 C12            1.2480     2.0168     0.0010 C.3     
  13 C13            1.0303     3.5079     0.0111 C.ar    
  14 C14            0.9419     4.1854     1.2128 C.ar    
  15 C15            0.7422     5.5532     1.2220 C.ar    
  16 C16            0.6313     6.2436     0.0296 C.ar    
  17 C17            0.7206     5.5663    -1.1722 C.ar    
  18 C18            0.9247     4.1991    -1.1814 C.ar    
  19 C19            2.7693    -6.7238    -0.6747 C.3     
  20 C20            3.5205    -7.5208     0.4117 C.3     
  21 C21            2.4015    -8.0161     1.3614 C.3     
  22 C22            1.4263    -6.8133     1.3970 C.3     
  23 H23            2.1983    -2.4397    -0.0320 H       
  24 H24           -2.0916    -2.6557     0.0069 H       
  25 H25           -2.1409    -0.1774     0.0278 H       
  26 H26            2.1684    -4.2803    -0.0432 H       
  27 H27            0.6015    -6.6904    -0.6096 H       
  28 H28            1.8174     1.7267     0.8840 H       
  29 H29            1.8004     1.7363    -0.8958 H       
  30 H30            1.0285     3.6460     2.1444 H       
  31 H31            0.6724     6.0824     2.1609 H       
  32 H32            0.4745     7.3122     0.0368 H       
  33 H33            0.6337     6.1056    -2.1038 H       
  34 H34            0.9945     3.6699    -2.1203 H       
  35 H35            2.5792    -7.3592    -1.5396 H       
  36 H36            3.3550    -5.8538    -0.9716 H       
  37 H37            4.0471    -8.3663    -0.0310 H       
  38 H38            4.2163    -6.8744     0.9465 H       
  39 H39            1.9108    -8.8993     0.9525 H       
  40 H40            2.8004    -8.2196     2.3551 H       
  41 H41            1.7839    -6.0526     2.0910 H       
  42 H42            0.4246    -7.1424     1.6734 H       
@<TRIPOS>BOND
   1    1    2 1
   2    1   12 1
   3    2    3 ar
   4    2    7 ar
   5    3    4 ar
   6    4    5 ar
   7    4   23 1
   8    5    6 ar
   9    5    8 1
  10    6    7 ar
  11    6   24 1
  12    7   25 1
  13    8    9 am
  14    8   10 2
  15    9   11 1
  16    9   26 1
  17   11   19 1
  18   11   22 1
  19   11   27 1
  20   12   13 1
  21   12   28 1
  22   12   29 1
  23   13   14 ar
  24   13   18 ar
  25   14   15 ar
  26   14   30 1
  27   15   16 ar
  28   15   31 1
  29   16   17 ar
  30   16   32 1
  31   17   18 ar
  32   17   33 1
  33   18   34 1
  34   19   20 1
  35   19   35 1
  36   19   36 1
  37   20   21 1
  38   20   37 1
  39   20   38 1
  40   21   22 1
  41   21   39 1
  42   21   40 1
  43   22   41 1
  44   22   42 1

#	End of record

