#	Name: ASD03082288
#	Creating user name:	WinNT
#	Creation time:	15. 06. 2019 20:27

#	Modifying user name:	WinNT
#	Modification time:	15. 06. 2019 20:27

#	Program:	/corina/corina34_cracker 3.40 0067  02.08.2006

@<TRIPOS>MOLECULE
ASD03082288
  50   53    0    0    0
SMALL
NO_CHARGES


@<TRIPOS>ATOM
   1 N1             0.0630     1.5594    -0.3335 N.pl3   
   2 N2             0.1195     0.1566    -0.3627 N.2     
   3 C3             1.2788    -0.1906     0.1486 C.2     
   4 N4             1.9485     0.9091     0.4947 N.2     
   5 C5             1.2286     1.9764     0.2104 C.2     
   6 N6             1.7358    -1.5005     0.3049 N.pl3   
   7 C7             3.0393    -1.7376     0.7530 C.ar    
   8 C8             3.3454    -2.9256     1.4046 C.ar    
   9 C9             4.6330    -3.1588     1.8467 C.ar    
  10 C10            5.6195    -2.2097     1.6414 C.ar    
  11 C11            5.3173    -1.0224     0.9917 C.ar    
  12 C12            4.0304    -0.7882     0.5421 C.ar    
  13 C13            1.6259     3.3814     0.4446 C.ar    
  14 C14           -1.0376     2.4038    -0.8048 C.3     
  15 C15            0.6577     4.3601     0.6933 C.ar    
  16 C16            1.0775     5.6606     0.9064 C.ar    
  17 C17            2.4406     5.9505     0.8666 C.ar    
  18 N18            3.3332     4.9963     0.6276 N.ar    
  19 C19            2.9754     3.7492     0.4261 C.ar    
  20 O20           -1.5557     1.8732    -2.0263 O.3     
  21 F21            6.8782    -2.4401     2.0748 F       
  22 C22           -2.1459     2.4324     0.2496 C.3     
  23 F23            6.2812    -0.0969     0.7930 F       
  24 C24            2.8990     7.3400     1.0931 C.2     
  25 N25            4.2148     7.6299     1.0565 N.am    
  26 O26            2.0890     8.2191     1.3120 O.2     
  27 C27            4.8051     8.9604     1.2630 C.3     
  28 C28            5.3008     6.6641     0.8090 C.3     
  29 C29            6.4724     7.5166     0.2611 C.3     
  30 C30            6.3330     8.8135     1.1038 C.3     
  31 H31            1.1493    -2.2462     0.1027 H       
  32 H32            2.5765    -3.6668     1.5657 H       
  33 H33            4.8704    -4.0825     2.3535 H       
  34 H34            3.7955     0.1343     0.0318 H       
  35 H35           -0.6716     3.4163    -0.9748 H       
  36 H36           -0.3918     4.1064     0.7180 H       
  37 H37            0.3580     6.4422     1.1010 H       
  38 H38            3.7304     3.0010     0.2350 H       
  39 H39           -1.8996     0.9727    -1.9494 H       
  40 H40           -1.7507     2.8371     1.1813 H       
  41 H41           -2.9648     3.0606    -0.1010 H       
  42 H42           -2.5119     1.4198     0.4196 H       
  43 H43            4.4200     9.6565     0.5178 H       
  44 H44            4.5695     9.3191     2.2650 H       
  45 H45            5.5909     6.1732     1.7380 H       
  46 H46            4.9907     5.9257     0.0696 H       
  47 H47            7.4300     7.0310     0.4486 H       
  48 H48            6.3421     7.7228    -0.8013 H       
  49 H49            6.7494     9.6674     0.5693 H       
  50 H50            6.8117     8.6950     2.0759 H       
@<TRIPOS>BOND
   1    1    2 1
   2    1    5 1
   3    1   14 1
   4    2    3 2
   5    3    4 1
   6    3    6 1
   7    4    5 2
   8    5   13 1
   9    6    7 1
  10    6   31 1
  11    7    8 ar
  12    7   12 ar
  13    8    9 ar
  14    8   32 1
  15    9   10 ar
  16    9   33 1
  17   10   11 ar
  18   10   21 1
  19   11   12 ar
  20   11   23 1
  21   12   34 1
  22   13   15 ar
  23   13   19 ar
  24   14   20 1
  25   14   22 1
  26   14   35 1
  27   15   16 ar
  28   15   36 1
  29   16   17 ar
  30   16   37 1
  31   17   18 ar
  32   17   24 1
  33   18   19 ar
  34   19   38 1
  35   20   39 1
  36   22   40 1
  37   22   41 1
  38   22   42 1
  39   24   25 am
  40   24   26 2
  41   25   27 1
  42   25   28 1
  43   27   30 1
  44   27   43 1
  45   27   44 1
  46   28   29 1
  47   28   45 1
  48   28   46 1
  49   29   30 1
  50   29   47 1
  51   29   48 1
  52   30   49 1
  53   30   50 1

#	End of record

