#	Name: ASD03240221
#	Creating user name:	WinNT
#	Creation time:	15. 06. 2019 20:34

#	Modifying user name:	WinNT
#	Modification time:	15. 06. 2019 20:34

#	Program:	/corina/corina34_cracker 3.40 0067  02.08.2006

@<TRIPOS>MOLECULE
ASD03240221
  88   93    0    0    0
SMALL
NO_CHARGES


@<TRIPOS>ATOM
   1 C1             0.4926     2.8158     1.8313 C.2     
   2 N2             0.7778     2.1761     3.0144 N.pl3   
   3 O3            -3.1882     4.2950     1.3492 O.2     
   4 C4            -2.4924     4.5023     0.3777 C.2     
   5 C5            -1.0638     4.0230     0.3579 C.3     
   6 N6            -0.7599     3.3414     1.6186 N.pl3   
   7 N7             1.4111     2.9285     0.9135 N.2     
   8 N8            -2.9969     5.1614    -0.6842 N.am    
   9 C9            -4.3474     5.5074    -0.7128 C.ar    
  10 C10           -4.7503     6.6800    -1.3442 C.ar    
  11 C11           -6.0828     7.0246    -1.3742 C.ar    
  12 C12           -7.0313     6.1949    -0.7700 C.ar    
  13 C13           -6.6232     5.0176    -0.1370 C.ar    
  14 C14           -5.2896     4.6765    -0.1148 C.ar    
  15 C15           -8.4605     6.5614    -0.7998 C.2     
  16 N16           -9.3739     5.7601    -0.2166 N.am    
  17 O17           -8.8140     7.5863    -1.3506 O.2     
  18 C18          -10.7152     6.1588    -0.1510 C.ar    
  19 C19          -11.7260     5.2095    -0.2237 C.ar    
  20 C20          -11.0337     7.5028    -0.0074 C.ar    
  21 C21          -12.3556     7.8959     0.0577 C.ar    
  22 C22          -13.3668     6.9470    -0.0203 C.ar    
  23 C23          -13.0480     5.6023    -0.1590 C.ar    
  24 N24          -14.7063     7.3451     0.0456 N.pl3   
  25 C25          -15.7729     6.3442    -0.0367 C.3     
  26 C26          -15.0425     8.7630     0.1971 C.3     
  27 C27          -15.1843     9.3937    -1.1642 C.ar    
  28 C28          -16.1120     5.8564     1.3483 C.ar    
  29 C29          -16.4164     9.4061    -1.7929 C.ar    
  30 C30          -16.5520     9.9825    -3.0396 C.ar    
  31 C31          -15.4450    10.5525    -3.6649 C.ar    
  32 C32          -14.2063    10.5372    -3.0271 C.ar    
  33 C33          -14.0833     9.9632    -1.7779 C.ar    
  34 C34          -17.0889     6.5006     2.0858 C.ar    
  35 C35          -17.4035     6.0581     3.3547 C.ar    
  36 C36          -16.7349     4.9603     3.8925 C.ar    
  37 C37          -15.7517     4.3151     3.1452 C.ar    
  38 C38          -15.4491     4.7626     1.8751 C.ar    
  39 C39          -15.5846    11.1732    -5.0056 C.ar    
  40 C40          -17.0685     4.4803     5.2565 C.ar    
  41 C41          -14.4776    11.7432    -5.6309 C.ar    
  42 C42          -14.6131    12.3192    -6.8778 C.ar    
  43 C43          -15.8452    12.3316    -7.5065 C.ar    
  44 C44          -16.9475    11.7676    -6.8901 C.ar    
  45 C45          -16.8220    11.1830    -5.6461 C.ar    
  46 C46          -16.3999     3.3824     5.7943 C.ar    
  47 C47          -16.7142     2.9402     7.0634 C.ar    
  48 C48          -17.6912     3.5844     7.8009 C.ar    
  49 C49          -18.3583     4.6744     7.2717 C.ar    
  50 C50          -18.0474     5.1292     6.0062 C.ar    
  51 H51            1.6626     1.8087     3.1660 H       
  52 H52            0.0942     2.0922     3.6974 H       
  53 H53           -0.9244     3.3306    -0.4723 H       
  54 H54           -0.3961     4.8758     0.2358 H       
  55 H55           -1.4423     3.2610     2.3032 H       
  56 H56            1.2099     3.3798     0.0788 H       
  57 H57           -2.4205     5.3950    -1.4286 H       
  58 H58           -4.0168     7.3207    -1.8109 H       
  59 H59           -6.3947     7.9353    -1.8639 H       
  60 H60           -7.3537     4.3742     0.3309 H       
  61 H61           -4.9736     3.7667     0.3738 H       
  62 H62           -9.1026     4.9074     0.1577 H       
  63 H63          -11.4781     4.1638    -0.3312 H       
  64 H64          -10.2474     8.2406     0.0536 H       
  65 H65          -12.6033     8.9411     0.1697 H       
  66 H66          -13.8342     4.8644    -0.2198 H       
  67 H67          -16.6569     6.7918    -0.4908 H       
  68 H68          -15.4372     5.5047    -0.6455 H       
  69 H69          -15.9823     8.8575     0.7410 H       
  70 H70          -14.2501     9.2672     0.7503 H       
  71 H71          -17.2737     8.9637    -1.3074 H       
  72 H72          -17.5143     9.9913    -3.5298 H       
  73 H73          -13.3450    10.9777    -3.5073 H       
  74 H74          -13.1236     9.9508    -1.2826 H       
  75 H75          -17.6063     7.3516     1.6680 H       
  76 H76          -18.1662     6.5620     3.9298 H       
  77 H77          -15.2304     3.4637     3.5573 H       
  78 H78          -14.6872     4.2634     1.2950 H       
  79 H79          -13.5153    11.7347    -5.1406 H       
  80 H80          -13.7557    12.7613    -7.3634 H       
  81 H81          -15.9468    12.7837    -8.4820 H       
  82 H82          -17.9072    11.7803    -7.3853 H       
  83 H83          -17.6832    10.7426    -5.1659 H       
  84 H84          -15.6374     2.8783     5.2191 H       
  85 H85          -16.1966     2.0894     7.4813 H       
  86 H86          -17.9342     3.2347     8.7934 H       
  87 H87          -19.1206     5.1734     7.8516 H       
  88 H88          -18.5687     5.9805     5.5940 H       
@<TRIPOS>BOND
   1    1    2 1
   2    1    7 2
   3    1    6 1
   4    2   51 1
   5    2   52 1
   6    3    4 2
   7    4    5 1
   8    4    8 am
   9    5    6 1
  10    5   53 1
  11    5   54 1
  12    6   55 1
  13    7   56 1
  14    8    9 1
  15    8   57 1
  16    9   10 ar
  17    9   14 ar
  18   10   11 ar
  19   10   58 1
  20   11   12 ar
  21   11   59 1
  22   12   13 ar
  23   12   15 1
  24   13   14 ar
  25   13   60 1
  26   14   61 1
  27   15   16 am
  28   15   17 2
  29   16   18 1
  30   16   62 1
  31   18   19 ar
  32   18   20 ar
  33   19   23 ar
  34   19   63 1
  35   20   21 ar
  36   20   64 1
  37   21   22 ar
  38   21   65 1
  39   22   23 ar
  40   22   24 1
  41   23   66 1
  42   24   25 1
  43   24   26 1
  44   25   28 1
  45   25   67 1
  46   25   68 1
  47   26   27 1
  48   26   69 1
  49   26   70 1
  50   27   29 ar
  51   27   33 ar
  52   28   34 ar
  53   28   38 ar
  54   29   30 ar
  55   29   71 1
  56   30   31 ar
  57   30   72 1
  58   31   32 ar
  59   31   39 1
  60   32   33 ar
  61   32   73 1
  62   33   74 1
  63   34   35 ar
  64   34   75 1
  65   35   36 ar
  66   35   76 1
  67   36   37 ar
  68   36   40 1
  69   37   38 ar
  70   37   77 1
  71   38   78 1
  72   39   41 ar
  73   39   45 ar
  74   40   46 ar
  75   40   50 ar
  76   41   42 ar
  77   41   79 1
  78   42   43 ar
  79   42   80 1
  80   43   44 ar
  81   43   81 1
  82   44   45 ar
  83   44   82 1
  84   45   83 1
  85   46   47 ar
  86   46   84 1
  87   47   48 ar
  88   47   85 1
  89   48   49 ar
  90   48   86 1
  91   49   50 ar
  92   49   87 1
  93   50   88 1

#	End of record

