#	Name: ASD00170115
#	Creating user name:	WinNT
#	Creation time:	15. 06. 2019 18:31

#	Modifying user name:	WinNT
#	Modification time:	15. 06. 2019 18:31

#	Program:	/corina/corina34_cracker 3.40 0067  02.08.2006

@<TRIPOS>MOLECULE
ASD00170115
  31   34    0    0    0
SMALL
NO_CHARGES


@<TRIPOS>ATOM
   1 C1            -0.0182     1.4914     0.0102 C.2     
   2 C2             0.0021    -0.0041     0.0020 C.ar    
   3 C3             1.3190    -0.4523    -0.0130 C.ar    
   4 C4             2.1958     0.7739    -0.0148 C.3     
   5 C5             1.2473     1.9527     0.0006 C.2     
   6 S6             1.2222     3.7155     0.0095 S.3     
   7 C7            -0.5366     3.6920     0.0259 C.2     
   8 N8            -0.9504     2.4701     0.0195 N.2     
   9 C9            -1.0453    -0.9281     0.0075 C.ar    
  10 C10           -0.7701    -2.2774    -0.0020 C.ar    
  11 C11            0.5516    -2.7230    -0.0170 C.ar    
  12 C12            1.5976    -1.7992    -0.0233 C.ar    
  13 N13           -1.3514     4.8123     0.0390 N.pl3   
  14 C14            0.8449    -4.1766    -0.0263 C.ar    
  15 C15            0.2325    -5.0204     0.9002 C.ar    
  16 C16            0.5096    -6.3737     0.8860 C.ar    
  17 C17            1.3921    -6.8914    -0.0444 C.ar    
  18 C18            2.0022    -6.0587    -0.9656 C.ar    
  19 C19            1.7293    -4.7060    -0.9647 C.ar    
  20 Cl20          -0.8751    -4.3714     2.0689 Cl      
  21 H21            2.8272     0.7868     0.8736 H       
  22 H22            2.8101     0.7964    -0.9148 H       
  23 H23           -2.0693    -0.5850     0.0195 H       
  24 H24           -1.5796    -2.9923     0.0026 H       
  25 H25            2.6222    -2.1406    -0.0347 H       
  26 H26           -0.9573     5.6986     0.0397 H       
  27 H27           -2.3160     4.7104     0.0476 H       
  28 H28            0.0366    -7.0285     1.6029 H       
  29 H29            1.6061    -7.9499    -0.0517 H       
  30 H30            2.6905    -6.4689    -1.6898 H       
  31 H31            2.2065    -4.0574    -1.6844 H       
@<TRIPOS>BOND
   1    1    2 1
   2    1    5 2
   3    1    8 1
   4    2    3 ar
   5    2    9 ar
   6    3    4 1
   7    3   12 ar
   8    4    5 1
   9    4   21 1
  10    4   22 1
  11    5    6 1
  12    6    7 1
  13    7    8 2
  14    7   13 1
  15    9   10 ar
  16    9   23 1
  17   10   11 ar
  18   10   24 1
  19   11   12 ar
  20   11   14 1
  21   12   25 1
  22   13   26 1
  23   13   27 1
  24   14   15 ar
  25   14   19 ar
  26   15   16 ar
  27   15   20 1
  28   16   17 ar
  29   16   28 1
  30   17   18 ar
  31   17   29 1
  32   18   19 ar
  33   18   30 1
  34   19   31 1

#	End of record

