#	Name: ASD03430552
#	Creating user name:	WinNT
#	Creation time:	15. 06. 2019 20:41

#	Modifying user name:	WinNT
#	Modification time:	15. 06. 2019 20:41

#	Program:	/corina/corina34_cracker 3.40 0067  02.08.2006

@<TRIPOS>MOLECULE
ASD03430552
  55   60    0    0    0
SMALL
NO_CHARGES


@<TRIPOS>ATOM
   1 N1            -0.0157     1.3067     0.0092 N.ar    
   2 C2             0.0021    -0.0041     0.0020 C.ar    
   3 C3             1.1968    -0.7209    -0.0128 C.ar    
   4 C4             2.3901    -0.0571    -0.0206 C.ar    
   5 C5             2.3680     1.3511    -0.0133 C.ar    
   6 C6             3.5481     2.1018    -0.0210 C.ar    
   7 C7             3.5003     3.4790    -0.0140 C.ar    
   8 C8             2.2527     4.1270     0.0009 C.ar    
   9 C9             1.0923     3.4228     0.0087 C.ar    
  10 C10            1.1159     2.0174     0.0022 C.ar    
  11 N11            4.7926     4.0081    -0.0243 N.am    
  12 C12            5.0104     1.7210    -0.0373 C.3     
  13 C13            5.7349     3.0505    -0.0382 C.2     
  14 O14            6.9359     3.2188    -0.0496 O.2     
  15 C15            5.0871     5.4432    -0.0212 C.3     
  16 C16            5.2018     5.9294     1.4006 C.ar    
  17 C17            6.4279     5.9112     2.0394 C.ar    
  18 C18            6.5357     6.3563     3.3427 C.ar    
  19 C19            5.4124     6.8219     4.0106 C.ar    
  20 C20            4.1833     6.8391     3.3674 C.ar    
  21 C21            4.0818     6.3982     2.0621 C.ar    
  22 O22            5.5157     7.2599     5.2929 O.3     
  23 C23            4.3179     7.7252     5.9180 C.3     
  24 O24            6.2857    -1.0639     4.6952 O.3     
  25 C25            5.5698    -0.3205     5.6960 C.3     
  26 C26            5.4380     1.0807     5.0536 C.3     
  27 C27            5.5183     0.7556     3.5743 C.ar    
  28 C28            6.0231    -0.5349     3.4685 C.ar    
  29 C29            6.1879    -1.0917     2.2040 C.ar    
  30 C30            5.8593    -0.3626     1.0737 C.ar    
  31 C31            5.3635     0.9277     1.1944 C.ar    
  32 C32            5.1953     1.4827     2.4499 C.ar    
  33 O33            6.0236    -0.9124    -0.1582 O.3     
  34 H34           -0.9341    -0.5426     0.0081 H       
  35 H35            1.1791    -1.8007    -0.0177 H       
  36 H36            3.3253    -0.5971    -0.0317 H       
  37 H37            2.2170     5.2064     0.0067 H       
  38 H38            0.1468     3.9446     0.0201 H       
  39 H39            5.2481     1.1557    -0.9384 H       
  40 H40            6.0270     5.6223    -0.5434 H       
  41 H41            4.2834     5.9801    -0.5251 H       
  42 H42            7.3020     5.5483     1.5191 H       
  43 H43            7.4935     6.3416     3.8414 H       
  44 H44            3.3073     7.2010     3.8852 H       
  45 H45            3.1262     6.4158     1.5594 H       
  46 H46            3.9161     8.5661     5.3528 H       
  47 H47            3.5840     6.9196     5.9420 H       
  48 H48            4.5400     8.0448     6.9362 H       
  49 H49            4.5873    -0.7581     5.8728 H       
  50 H50            6.1428    -0.2684     6.6218 H       
  51 H51            4.4783     1.5341     5.3013 H       
  52 H52            6.2622     1.7269     5.3557 H       
  53 H53            6.5731    -2.0957     2.1038 H       
  54 H54            4.8097     2.4866     2.5488 H       
  55 H55            5.2483    -1.3912    -0.4818 H       
@<TRIPOS>BOND
   1    1    2 ar
   2    1   10 ar
   3    2    3 ar
   4    2   34 1
   5    3    4 ar
   6    3   35 1
   7    4    5 ar
   8    4   36 1
   9    5    6 ar
  10    5   10 ar
  11    6    7 ar
  12    6   12 1
  13    7    8 ar
  14    7   11 1
  15    8    9 ar
  16    8   37 1
  17    9   10 ar
  18    9   38 1
  19   11   13 am
  20   11   15 1
  21   12   13 1
  22   12   31 1
  23   12   39 1
  24   13   14 2
  25   15   16 1
  26   15   40 1
  27   15   41 1
  28   16   17 ar
  29   16   21 ar
  30   17   18 ar
  31   17   42 1
  32   18   19 ar
  33   18   43 1
  34   19   20 ar
  35   19   22 1
  36   20   21 ar
  37   20   44 1
  38   21   45 1
  39   22   23 1
  40   23   46 1
  41   23   47 1
  42   23   48 1
  43   24   25 1
  44   24   28 1
  45   25   26 1
  46   25   49 1
  47   25   50 1
  48   26   27 1
  49   26   51 1
  50   26   52 1
  51   27   28 ar
  52   27   32 ar
  53   28   29 ar
  54   29   30 ar
  55   29   53 1
  56   30   31 ar
  57   30   33 1
  58   31   32 ar
  59   32   54 1
  60   33   55 1

#	End of record

