#	Name: ASD01900702
#	Creating user name:	WinNT
#	Creation time:	15. 06. 2019 19:52

#	Modifying user name:	WinNT
#	Modification time:	15. 06. 2019 19:52

#	Program:	/corina/corina34_cracker 3.40 0067  02.08.2006

@<TRIPOS>MOLECULE
ASD01900702
  45   48    0    0    0
SMALL
NO_CHARGES


@<TRIPOS>ATOM
   1 C1            -0.0157     1.4040    -0.1136 C.ar    
   2 C2             0.0117     0.0195    -0.1178 C.ar    
   3 C3            -1.1601    -0.7086    -0.0670 C.ar    
   4 C4            -2.3828    -0.0531    -0.0103 C.ar    
   5 C5            -2.4058     1.3481    -0.0101 C.ar    
   6 O6            -3.5355    -0.7536     0.0514 O.3     
   7 C7            -4.7266    -0.1778    -0.1889 C.2     
   8 C8            -4.9012     1.1681    -0.2046 C.2     
   9 C9            -3.7271     2.0248     0.0375 C.2     
  10 C10           -5.8896    -1.0431    -0.4459 C.2     
  11 N11           -7.1040    -0.4928    -0.6914 N.2     
  12 C12           -8.1547    -1.2198    -0.9233 C.2     
  13 N13           -8.0909    -2.5862    -0.9316 N.pl3   
  14 C14           -6.8807    -3.2117    -0.6882 C.2     
  15 C15           -5.7431    -2.4202    -0.4429 C.2     
  16 C16           -1.2224     2.0732    -0.0541 C.ar    
  17 C17           -9.0309    -3.5485    -1.1436 C.2     
  18 C18           -8.4468    -4.7672    -1.0406 C.2     
  19 C19           -7.0919    -4.5762    -0.7540 C.2     
  20 C20            1.2738     2.1820    -0.1677 C.3     
  21 C21            1.6478     2.4485    -1.6272 C.3     
  22 C22            2.9570     3.2383    -1.6822 C.3     
  23 O23            3.3063     3.4872    -3.0453 O.3     
  24 C24            4.5204     4.2228    -3.2092 C.3     
  25 N25           -3.8419     3.3088     0.2804 N.2     
  26 O26           -2.7031     4.0637     0.6524 O.3     
  27 H27            0.9597    -0.4961    -0.1616 H       
  28 H28           -1.1257    -1.7881    -0.0718 H       
  29 H29           -5.8740     1.5992    -0.3896 H       
  30 H30           -9.1006    -0.7346    -1.1136 H       
  31 H31           -4.7828    -2.8750    -0.2497 H       
  32 H32           -1.2458     3.1529    -0.0500 H       
  33 H33          -10.0740    -3.3693    -1.3590 H       
  34 H34           -8.9418    -5.7198    -1.1593 H       
  35 H35           -6.3506    -5.3484    -0.6110 H       
  36 H36            1.1480     3.1307     0.3541 H       
  37 H37            2.0659     1.6063     0.3110 H       
  38 H38            1.7736     1.4998    -2.1490 H       
  39 H39            0.8557     3.0242    -2.1059 H       
  40 H40            2.8312     4.1870    -1.1603 H       
  41 H41            3.7491     2.6626    -1.2034 H       
  42 H42            4.4270     5.1919    -2.7190 H       
  43 H43            5.3449     3.6675    -2.7621 H       
  44 H44            4.7153     4.3702    -4.2714 H       
  45 H45           -2.8863     4.9999     0.8106 H       
@<TRIPOS>BOND
   1    1    2 ar
   2    1   20 1
   3    1   16 ar
   4    2    3 ar
   5    2   27 1
   6    3    4 ar
   7    3   28 1
   8    4    5 ar
   9    4    6 1
  10    5   16 ar
  11    5    9 1
  12    6    7 1
  13    7    8 2
  14    7   10 1
  15    8    9 1
  16    8   29 1
  17    9   25 2
  18   10   11 1
  19   10   15 2
  20   11   12 2
  21   12   13 1
  22   12   30 1
  23   13   14 1
  24   13   17 1
  25   14   15 1
  26   14   19 2
  27   15   31 1
  28   16   32 1
  29   17   18 2
  30   17   33 1
  31   18   19 1
  32   18   34 1
  33   19   35 1
  34   20   21 1
  35   20   36 1
  36   20   37 1
  37   21   22 1
  38   21   38 1
  39   21   39 1
  40   22   23 1
  41   22   40 1
  42   22   41 1
  43   23   24 1
  44   24   42 1
  45   24   43 1
  46   24   44 1
  47   25   26 1
  48   26   45 1

#	End of record

