#	Name: ASD01948278
#	Creating user name:	WinNT
#	Creation time:	15. 06. 2019 20:14

#	Modifying user name:	WinNT
#	Modification time:	15. 06. 2019 20:14

#	Program:	/corina/corina34_cracker 3.40 0067  02.08.2006

@<TRIPOS>MOLECULE
ASD01948278
  42   44    0    0    0
SMALL
NO_CHARGES


@<TRIPOS>ATOM
   1 C1             1.2604     2.9137     2.7620 C.ar    
   2 C2             1.9885     2.5011     3.8640 C.ar    
   3 C3             3.2360     1.9279     3.6976 C.ar    
   4 C4             3.7603     1.7649     2.4296 C.ar    
   5 C5             3.0337     2.1768     1.3209 C.ar    
   6 C6             1.7788     2.7534     1.4905 C.ar    
   7 N7             5.0744     0.2187    -0.3286 N.am    
   8 C8             4.8528     1.5493    -0.1258 C.2     
   9 N9             3.5623     2.0134     0.0360 N.pl3   
  10 C10            6.3234    -0.2562    -0.4888 C.2     
  11 C11            7.4213     0.6108    -0.4495 C.2     
  12 C12            7.2167     1.9609    -0.2452 C.2     
  13 C13            5.9124     2.4356    -0.0809 C.2     
  14 N14            5.6794     3.8074     0.1290 N.am    
  15 I15            1.1994     2.7461     5.7892 I       
  16 O16            6.4999    -1.4521    -0.6694 O.2     
  17 F17            1.0678     3.1553     0.4143 F       
  18 C18            3.9386    -0.7059    -0.3665 C.3     
  19 S19            6.9455     4.8746     0.1102 S.o2    
  20 O20            6.3415     6.1391     0.3456 O.2     
  21 O21            7.8797     4.3263     1.0300 O.2     
  22 C22            7.5902     4.7823    -1.5828 C.3     
  23 C23            8.7168     5.7451    -1.9632 C.3     
  24 C24            9.0152     4.2572    -1.7686 C.3     
  25 F25            8.6734     0.1296    -0.6099 F       
  26 C26            6.5627     4.4355    -2.6622 C.3     
  27 H27            0.2848     3.3573     2.8950 H       
  28 H28            3.8014     1.6074     4.5601 H       
  29 H29            4.7349     1.3177     2.3013 H       
  30 H30            3.0223     2.2262    -0.7412 H       
  31 H31            8.0544     2.6418    -0.2121 H       
  32 H32            4.7772     4.1278     0.2847 H       
  33 H33            3.5210    -0.7274    -1.3731 H       
  34 H34            4.2747    -1.7056    -0.0912 H       
  35 H35            3.1752    -0.3727     0.3366 H       
  36 H36            8.7262     6.1312    -2.9825 H       
  37 H37            9.0706     6.4339    -1.1962 H       
  38 H38            9.5653     3.9671    -0.8734 H       
  39 H39            9.2209     3.6643    -2.6598 H       
  40 H40            6.0627     5.3456    -2.9936 H       
  41 H41            7.0678     3.9698    -3.5084 H       
  42 H42            5.8258     3.7442    -2.2535 H       
@<TRIPOS>BOND
   1    1    2 ar
   2    1    6 ar
   3    1   27 1
   4    2    3 ar
   5    2   15 1
   6    3    4 ar
   7    3   28 1
   8    4    5 ar
   9    4   29 1
  10    5    6 ar
  11    5    9 1
  12    6   17 1
  13    7    8 1
  14    7   10 am
  15    7   18 1
  16    8    9 1
  17    8   13 2
  18    9   30 1
  19   10   11 1
  20   10   16 2
  21   11   12 2
  22   11   25 1
  23   12   13 1
  24   12   31 1
  25   13   14 1
  26   14   19 am
  27   14   32 1
  28   18   33 1
  29   18   34 1
  30   18   35 1
  31   19   20 2
  32   19   21 2
  33   19   22 1
  34   22   23 1
  35   22   26 1
  36   22   24 1
  37   23   24 1
  38   23   36 1
  39   23   37 1
  40   24   38 1
  41   24   39 1
  42   26   40 1
  43   26   41 1
  44   26   42 1

#	End of record

