#	Name: ASD01913883
#	Creating user name:	WinNT
#	Creation time:	15. 06. 2019 20:02

#	Modifying user name:	WinNT
#	Modification time:	15. 06. 2019 20:02

#	Program:	/corina/corina34_cracker 3.40 0067  02.08.2006

@<TRIPOS>MOLECULE
ASD01913883
  43   46    0    0    0
SMALL
NO_CHARGES


@<TRIPOS>ATOM
   1 C1            -0.0203     1.4273     0.0517 C.ar    
   2 C2             0.0001    -0.0044     0.0314 C.1     
   3 C3             0.0167    -1.1781     0.0148 C.1     
   4 C4             0.0371    -2.6099    -0.0056 C.ar    
   5 C5            -1.1377    -3.3353    -0.2545 C.ar    
   6 C6             0.1560    -5.3344    -0.0290 C.ar    
   7 N7             1.2492    -4.6217     0.1978 N.ar    
   8 C8             1.2278    -3.3051     0.2164 C.ar    
   9 C9            -1.0673    -4.7138    -0.2643 C.ar    
  10 C10            1.1538     2.1422     0.3004 C.ar    
  11 C11            1.1263     3.5235     0.3179 C.ar    
  12 C12           -1.2138     2.1158    -0.1829 C.ar    
  13 C13           -0.0626     4.1981     0.0899 C.ar    
  14 C14           -1.2271     3.4947    -0.1625 C.ar    
  15 N15            0.2331    -6.7250    -0.0385 N.am    
  16 C16           -0.8145    -7.5590    -0.0338 C.2     
  17 N17           -0.4775    -8.8549    -0.0451 N.am    
  18 C18            0.9874    -8.9758    -0.0598 C.3     
  19 C19            1.4770    -7.5076    -0.0615 C.3     
  20 C20           -1.4205    -9.9760    -0.0427 C.3     
  21 O21           -1.9677    -7.1743    -0.0198 O.2     
  22 F22            2.2602     4.2176     0.5581 F       
  23 C23            1.4345    -9.5801    -1.4058 C.3     
  24 C24            1.5961    -8.3559    -2.3401 C.3     
  25 C25            2.1996    -7.2908    -1.4061 C.3     
  26 H26            1.3599    -9.5353     0.7983 H       
  27 H27            2.1095    -7.2850     0.7978 H       
  28 H28           -2.0740    -2.8277    -0.4337 H       
  29 H29            2.1396    -2.7579     0.4047 H       
  30 H30           -1.9518    -5.3043    -0.4522 H       
  31 H31            2.0804     1.6167     0.4787 H       
  32 H32           -2.1239     1.5689    -0.3801 H       
  33 H33           -0.0794     5.2778     0.1053 H       
  34 H34           -2.1500     4.0269    -0.3393 H       
  35 H35           -2.4407    -9.5926    -0.0307 H       
  36 H36           -1.2697   -10.5795    -0.9377 H       
  37 H37           -1.2527   -10.5900     0.8421 H       
  38 H38            2.3852   -10.1012    -1.2926 H       
  39 H39            0.6719   -10.2563    -1.7921 H       
  40 H40            2.2805    -8.5817    -3.1579 H       
  41 H41            0.6284    -8.0318    -2.7231 H       
  42 H42            1.9966    -6.2902    -1.7878 H       
  43 H43            3.2726    -7.4464    -1.2937 H       
@<TRIPOS>BOND
   1    1    2 1
   2    1   10 ar
   3    1   12 ar
   4    2    3 3
   5    3    4 1
   6    4    5 ar
   7    4    8 ar
   8    5    9 ar
   9    5   28 1
  10    6    7 ar
  11    6   15 1
  12    6    9 ar
  13    7    8 ar
  14    8   29 1
  15    9   30 1
  16   10   11 ar
  17   10   31 1
  18   11   13 ar
  19   11   22 1
  20   12   14 ar
  21   12   32 1
  22   13   14 ar
  23   13   33 1
  24   14   34 1
  25   15   16 am
  26   15   19 1
  27   16   17 am
  28   16   21 2
  29   17   18 1
  30   17   20 1
  31   18   19 1
  32   18   23 1
  33   18   26 1
  34   19   27 1
  35   19   25 1
  36   20   35 1
  37   20   36 1
  38   20   37 1
  39   23   24 1
  40   23   38 1
  41   23   39 1
  42   24   25 1
  43   24   40 1
  44   24   41 1
  45   25   42 1
  46   25   43 1

#	End of record

