#	Name: ASD01008007
#	Creating user name:	WinNT
#	Creation time:	15. 06. 2019 18:56

#	Modifying user name:	WinNT
#	Modification time:	15. 06. 2019 18:56

#	Program:	/corina/corina34_cracker 3.40 0067  02.08.2006

@<TRIPOS>MOLECULE
ASD01008007
  65   68    0    0    0
SMALL
NO_CHARGES


@<TRIPOS>ATOM
   1 N1            -0.0162     1.3436     0.0094 N.am    
   2 C2             0.0021    -0.0041     0.0020 C.2     
   3 O3             1.0631    -0.5976    -0.0113 O.2     
   4 N4            -1.1558    -0.6938     0.0094 N.am    
   5 C5            -1.1360    -2.1586     0.0013 C.3     
   6 N6            -4.8693    -4.2384     3.6911 N.pl3   
   7 C7            -4.0728    -4.7221     2.5540 C.3     
   8 C8            -4.7021    -4.1631     1.2749 C.3     
   9 C9            -4.6058    -2.6395     1.2925 C.3     
  10 C10           -5.1723    -2.1029     2.5837 C.ar    
  11 C11           -5.5908    -0.7842     2.6338 C.ar    
  12 C12           -6.1095    -0.2625     3.8031 C.ar    
  13 C13           -6.2132    -1.0559     4.9312 C.ar    
  14 C14           -5.7996    -2.3719     4.8887 C.ar    
  15 C15           -5.2784    -2.9004     3.7120 C.ar    
  16 C16           -3.9953    -4.7310     0.0472 C.3     
  17 C17           -2.5522    -4.2199     0.0038 C.3     
  18 C18           -2.5713    -2.6882     0.0122 C.3     
  19 O19           -3.2382    -2.2357     1.1908 O.3     
  20 C20           -6.5628     1.1740     3.8496 C.3     
  21 F21           -7.9133     1.2486     3.4921 F       
  22 F22           -6.3950     1.6742     5.1453 F       
  23 F23           -5.8008     1.9326     2.9546 F       
  24 C24           -4.0951    -6.2285     2.5184 C.ar    
  25 C25           -2.9463    -6.9295     2.2028 C.ar    
  26 C26           -2.9667    -8.3113     2.1701 C.ar    
  27 C27           -4.1360    -8.9921     2.4534 C.ar    
  28 C28           -5.2846    -8.2911     2.7698 C.ar    
  29 C29           -5.2630    -6.9094     2.8068 C.ar    
  30 C30            1.2424     2.0932     0.0014 C.3     
  31 C31            0.9425     3.5935     0.0124 C.3     
  32 N32            2.2045     4.3453     0.0043 N.3     
  33 C33            1.9635     5.7763    -0.2238 C.3     
  34 C34            2.9537     4.1296     1.2494 C.3     
  35 H35           -5.7514    -4.4554     1.2342 H       
  36 H36           -5.1671    -2.2306     0.4523 H       
  37 H37           -0.8627     1.8171     0.0160 H       
  38 H38           -2.0023    -0.2203     0.0200 H       
  39 H39           -0.6258    -2.5101    -0.8955 H       
  40 H40           -0.6088    -2.5197     0.8844 H       
  41 H41           -5.1109    -4.8386     4.4138 H       
  42 H42           -3.0457    -4.3689     2.6454 H       
  43 H43           -5.5111    -0.1608     1.7555 H       
  44 H44           -6.6173    -0.6457     5.8450 H       
  45 H45           -5.8802    -2.9917     5.7695 H       
  46 H46           -3.9935    -5.8197     0.1006 H       
  47 H47           -4.5202    -4.4129    -0.8535 H       
  48 H48           -2.0094    -4.5834     0.8763 H       
  49 H49           -2.0662    -4.5743    -0.9053 H       
  50 H50           -3.1014    -2.3255    -0.8685 H       
  51 H51           -2.0328    -6.3976     1.9815 H       
  52 H52           -2.0693    -8.8589     1.9229 H       
  53 H53           -4.1521   -10.0717     2.4271 H       
  54 H54           -6.1982    -8.8230     2.9909 H       
  55 H55           -6.1595    -6.3619     3.0576 H       
  56 H56            1.8260     1.8329     0.8845 H       
  57 H57            1.8090     1.8425    -0.8954 H       
  58 H58            0.3589     3.8538    -0.8707 H       
  59 H59            0.3759     3.8443     0.9091 H       
  60 H60            1.3279     6.1688     0.5700 H       
  61 H61            2.9143     6.3092    -0.2250 H       
  62 H62            1.4693     5.9126    -1.1858 H       
  63 H63            3.1794     3.0688     1.3585 H       
  64 H64            3.8835     4.6974     1.2170 H       
  65 H65            2.3540     4.4624     2.0966 H       
@<TRIPOS>BOND
   1    1    2 am
   2    1   30 1
   3    1   37 1
   4    2    3 2
   5    2    4 am
   6    4    5 1
   7    4   38 1
   8    5   18 1
   9    5   39 1
  10    5   40 1
  11    6    7 1
  12    6   15 1
  13    6   41 1
  14    7    8 1
  15    7   24 1
  16    7   42 1
  17    8    9 1
  18    8   16 1
  19    8   35 1
  20    9   10 1
  21    9   19 1
  22    9   36 1
  23   10   11 ar
  24   10   15 ar
  25   11   12 ar
  26   11   43 1
  27   12   13 ar
  28   12   20 1
  29   13   14 ar
  30   13   44 1
  31   14   15 ar
  32   14   45 1
  33   16   17 1
  34   16   46 1
  35   16   47 1
  36   17   18 1
  37   17   48 1
  38   17   49 1
  39   18   19 1
  40   18   50 1
  41   20   21 1
  42   20   22 1
  43   20   23 1
  44   24   25 ar
  45   24   29 ar
  46   25   26 ar
  47   25   51 1
  48   26   27 ar
  49   26   52 1
  50   27   28 ar
  51   27   53 1
  52   28   29 ar
  53   28   54 1
  54   29   55 1
  55   30   31 1
  56   30   56 1
  57   30   57 1
  58   31   32 1
  59   31   58 1
  60   31   59 1
  61   32   33 1
  62   32   34 1
  63   33   60 1
  64   33   61 1
  65   33   62 1
  66   34   63 1
  67   34   64 1
  68   34   65 1

#	End of record

