#	Name: ASD01150019
#	Creating user name:	WinNT
#	Creation time:	15. 06. 2019 19:03

#	Modifying user name:	WinNT
#	Modification time:	15. 06. 2019 19:03

#	Program:	/corina/corina34_cracker 3.40 0067  02.08.2006

@<TRIPOS>MOLECULE
ASD01150019
  47   49    0    0    0
SMALL
NO_CHARGES


@<TRIPOS>ATOM
   1 N1            -0.0159     1.3193     0.0093 N.ar    
   2 C2             0.0021    -0.0041     0.0020 C.ar    
   3 C3             1.2301    -0.6639    -0.0133 C.ar    
   4 C4             2.4017     0.1167    -0.0202 C.ar    
   5 N5             2.2881     1.4409    -0.0121 N.ar    
   6 C6             1.1032     2.0167     0.0024 C.ar    
   7 C7             2.1009    -2.7986    -0.9585 C.ar    
   8 C8             2.1671    -4.1729    -0.9668 C.ar    
   9 C9             1.4320    -4.9132    -0.0361 C.ar    
  10 C10            0.6305    -4.2560     0.9021 C.ar    
  11 C11            0.5658    -2.8816     0.9084 C.ar    
  12 C12            1.3002    -2.1435    -0.0214 C.ar    
  13 C13            6.0369    -0.4462     0.5540 C.3     
  14 C14            4.8576     0.3424    -0.0420 C.3     
  15 C15            5.2498     0.6927    -1.4923 C.3     
  16 C16            6.3038    -0.3776    -1.8699 C.3     
  17 C17            7.1046    -0.5475    -0.5549 C.3     
  18 N18            3.6473    -0.4830    -0.0349 N.pl3   
  19 C19            1.0242     3.5216     0.0107 C.3     
  20 C20            1.5018    -6.3868    -0.0442 C.2     
  21 O21            0.7931    -7.0998     0.8531 O.3     
  22 C22            0.9099    -8.5456     0.7864 C.3     
  23 C23            0.0403    -9.1782     1.8748 C.3     
  24 O24            2.1982    -6.9575    -0.8599 O.2     
  25 H25           -0.9211    -0.5646     0.0082 H       
  26 H26            2.6721    -2.2264    -1.6746 H       
  27 H27            2.7863    -4.6796    -1.6922 H       
  28 H28            0.0619    -4.8268     1.6213 H       
  29 H29           -0.0533    -2.3736     1.6330 H       
  30 H30            6.4428     0.0836     1.4158 H       
  31 H31            5.7087    -1.4430     0.8485 H       
  32 H32            4.6912     1.2549     0.5305 H       
  33 H33            4.3829     0.6229    -2.1494 H       
  34 H34            5.6858     1.6906    -1.5391 H       
  35 H35            5.8206    -1.3132    -2.1515 H       
  36 H36            6.9492    -0.0183    -2.6714 H       
  37 H37            7.8401     0.2501    -0.4504 H       
  38 H38            7.5912    -1.5225    -0.5279 H       
  39 H39            3.7198    -1.4503    -0.0405 H       
  40 H40            0.9951     3.8896    -1.0149 H       
  41 H41            0.1214     3.8351     0.5349 H       
  42 H42            1.8988     3.9285     0.5181 H       
  43 H43            0.5769    -8.8922    -0.1918 H       
  44 H44            1.9500    -8.8335     0.9393 H       
  45 H45            0.1280   -10.2635     1.8248 H       
  46 H46            0.3733    -8.8315     2.8531 H       
  47 H47           -0.9998    -8.8902     1.7220 H       
@<TRIPOS>BOND
   1    1    2 ar
   2    1    6 ar
   3    2    3 ar
   4    2   25 1
   5    3    4 ar
   6    3   12 1
   7    4    5 ar
   8    4   18 1
   9    5    6 ar
  10    6   19 1
  11    7    8 ar
  12    7   12 ar
  13    7   26 1
  14    8    9 ar
  15    8   27 1
  16    9   10 ar
  17    9   20 1
  18   10   11 ar
  19   10   28 1
  20   11   12 ar
  21   11   29 1
  22   13   14 1
  23   13   17 1
  24   13   30 1
  25   13   31 1
  26   14   15 1
  27   14   18 1
  28   14   32 1
  29   15   16 1
  30   15   33 1
  31   15   34 1
  32   16   17 1
  33   16   35 1
  34   16   36 1
  35   17   37 1
  36   17   38 1
  37   18   39 1
  38   19   40 1
  39   19   41 1
  40   19   42 1
  41   20   21 1
  42   20   24 2
  43   21   22 1
  44   22   23 1
  45   22   43 1
  46   22   44 1
  47   23   45 1
  48   23   46 1
  49   23   47 1

#	End of record

