#	Name: ASD03740169
#	Creating user name:	WinNT
#	Creation time:	15. 06. 2019 20:46

#	Modifying user name:	WinNT
#	Modification time:	15. 06. 2019 20:46

#	Program:	/corina/corina34_cracker 3.40 0067  02.08.2006

@<TRIPOS>MOLECULE
ASD03740169
  45   46    0    0    0
SMALL
NO_CHARGES


@<TRIPOS>ATOM
   1 Cl1            0.0000     0.0000     0.0000 Cl      
   2 H2             0.0000     1.3700     0.0000 H       
   3 C3             6.1567    11.7148     9.1775 C.ar    
   4 C4             5.9750    10.3405     9.0814 C.ar    
   5 C5             7.0143     9.4807     9.2967 C.ar    
   6 C6             8.2740     9.9821     9.6165 C.ar    
   7 C7             8.4597    11.3744     9.7138 C.ar    
   8 C8             7.3799    12.2342     9.4892 C.ar    
   9 N9             9.4862     9.4013     9.8837 N.pl3   
  10 N10           10.4271    10.4022    10.1464 N.2     
  11 C11            9.8668    11.5777    10.0574 C.2     
  12 C12            9.7538     7.9610     9.8932 C.3     
  13 C13           10.1750     7.5192     8.5153 C.ar    
  14 C14           11.5119     7.5309     8.1643 C.ar    
  15 C15           11.8983     7.1257     6.9004 C.ar    
  16 C16           10.9477     6.7084     5.9877 C.ar    
  17 C17            9.6108     6.6958     6.3390 C.ar    
  18 C18            9.2249     7.0969     7.6044 C.ar    
  19 O19           10.4806    12.7753    10.2490 O.3     
  20 C20           11.8705    12.7464    10.5797 C.3     
  21 C21           12.3827    14.1773    10.7559 C.3     
  22 N22           11.7235    14.7942    11.9148 N.3     
  23 C23           12.2859    14.2853    13.1729 C.3     
  24 C24           11.8123    16.2592    11.8529 C.3     
  25 H25            5.3234    12.3784     8.9996 H       
  26 H26            5.0000     9.9474     8.8337 H       
  27 H27            6.8596     8.4146     9.2196 H       
  28 H28            7.5133    13.3035     9.5614 H       
  29 H29           10.5513     7.7443    10.6039 H       
  30 H30            8.8507     7.4256    10.1862 H       
  31 H31           12.2546     7.8570     8.8774 H       
  32 H32           12.9427     7.1356     6.6259 H       
  33 H33           11.2494     6.3925     5.0000 H       
  34 H34            8.8680     6.3700     5.6259 H       
  35 H35            8.1804     7.0870     7.8789 H       
  36 H36           12.0116    12.1931    11.5082 H       
  37 H37           12.4246    12.2583     9.7780 H       
  38 H38           13.4605    14.1601    10.9176 H       
  39 H39           12.1589    14.7563     9.8599 H       
  40 H40           13.3507    14.5143    13.2137 H       
  41 H41           11.7800    14.7583    14.0146 H       
  42 H42           12.1441    13.2058    13.2238 H       
  43 H43           11.3373    16.6137    10.9381 H       
  44 H44           11.3057    16.6907    12.7161 H       
  45 H45           12.8599    16.5602    11.8584 H       
@<TRIPOS>BOND
   1    1    2 1
   2    3    4 ar
   3    3    8 ar
   4    3   25 1
   5    4    5 ar
   6    4   26 1
   7    5    6 ar
   8    5   27 1
   9    6    7 ar
  10    6    9 1
  11    7    8 ar
  12    7   11 1
  13    8   28 1
  14    9   10 1
  15    9   12 1
  16   10   11 2
  17   11   19 1
  18   12   13 1
  19   12   29 1
  20   12   30 1
  21   13   14 ar
  22   13   18 ar
  23   14   15 ar
  24   14   31 1
  25   15   16 ar
  26   15   32 1
  27   16   17 ar
  28   16   33 1
  29   17   18 ar
  30   17   34 1
  31   18   35 1
  32   19   20 1
  33   20   21 1
  34   20   36 1
  35   20   37 1
  36   21   22 1
  37   21   38 1
  38   21   39 1
  39   22   23 1
  40   22   24 1
  41   23   40 1
  42   23   41 1
  43   23   42 1
  44   24   43 1
  45   24   44 1
  46   24   45 1

#	End of record

