#	Name: ASD01910010
#	Creating user name:	WinNT
#	Creation time:	15. 06. 2019 19:55

#	Modifying user name:	WinNT
#	Modification time:	15. 06. 2019 19:55

#	Program:	/corina/corina34_cracker 3.40 0067  02.08.2006

@<TRIPOS>MOLECULE
ASD01910010
  43   46    0    0    0
SMALL
NO_CHARGES


@<TRIPOS>ATOM
   1 N1            -0.0158     1.3125     0.0093 N.2     
   2 C2             0.0021    -0.0041     0.0020 C.2     
   3 C3             1.3450    -0.4256    -0.0131 C.2     
   4 C4             2.1291     0.6845    -0.0146 C.2     
   5 N5             1.3077     1.7709    -0.0009 N.pl3   
   6 C6            -1.1880    -0.8904     0.0091 C.ar    
   7 C7            -2.4687    -0.3414     0.0242 C.ar    
   8 C8            -3.5720    -1.1705     0.0307 C.ar    
   9 C9            -3.4083    -2.5440     0.0223 C.ar    
  10 C10           -2.1394    -3.0943     0.0077 C.ar    
  11 C11           -1.0290    -2.2746    -0.0052 C.ar    
  12 C12            1.7149     3.1112     0.0015 C.ar    
  13 C13            0.9683     4.0665    -0.6756 C.ar    
  14 C14            1.3725     5.3871    -0.6714 C.ar    
  15 C15            2.5193     5.7585     0.0062 C.ar    
  16 C16            3.2650     4.8096     0.6814 C.ar    
  17 C17            2.8629     3.4883     0.6857 C.ar    
  18 N18            3.5224     0.7072    -0.0274 N.am    
  19 C19            4.2151    -0.4489    -0.0402 C.2     
  20 C20            5.6923    -0.4249    -0.0538 C.ar    
  21 O21            3.6244    -1.5115    -0.0407 O.2     
  22 C22            6.4127    -1.6209    -0.0671 C.ar    
  23 C23            7.7913    -1.5921    -0.0802 C.ar    
  24 C24            8.4614    -0.3798    -0.0797 C.ar    
  25 C25            7.7523     0.8100    -0.0660 C.ar    
  26 C26            6.3735     0.7940    -0.0591 C.ar    
  27 Cl27          10.1971    -0.3516    -0.0956 Cl      
  28 H28            1.6907    -1.4487    -0.0213 H       
  29 H29           -2.5976     0.7308     0.0311 H       
  30 H30           -4.5651    -0.7461     0.0428 H       
  31 H31           -4.2745    -3.1891     0.0275 H       
  32 H32           -2.0173    -4.1674     0.0016 H       
  33 H33           -0.0387    -2.7054    -0.0165 H       
  34 H34            0.0727     3.7769    -1.2052 H       
  35 H35            0.7924     6.1304    -1.1981 H       
  36 H36            2.8335     6.7918     0.0077 H       
  37 H37            4.1604     5.1028     1.2093 H       
  38 H38            3.4457     2.7477     1.2132 H       
  39 H39            3.9937     1.5550    -0.0270 H       
  40 H40            5.8913    -2.5667    -0.0669 H       
  41 H41            8.3496    -2.5165    -0.0905 H       
  42 H42            8.2804     1.7521    -0.0653 H       
  43 H43            5.8217     1.7223    -0.0484 H       
@<TRIPOS>BOND
   1    1    2 2
   2    1    5 1
   3    2    3 1
   4    2    6 1
   5    3    4 2
   6    3   28 1
   7    4    5 1
   8    4   18 1
   9    5   12 1
  10    6    7 ar
  11    6   11 ar
  12    7    8 ar
  13    7   29 1
  14    8    9 ar
  15    8   30 1
  16    9   10 ar
  17    9   31 1
  18   10   11 ar
  19   10   32 1
  20   11   33 1
  21   12   13 ar
  22   12   17 ar
  23   13   14 ar
  24   13   34 1
  25   14   15 ar
  26   14   35 1
  27   15   16 ar
  28   15   36 1
  29   16   17 ar
  30   16   37 1
  31   17   38 1
  32   18   19 am
  33   18   39 1
  34   19   20 1
  35   19   21 2
  36   20   22 ar
  37   20   26 ar
  38   22   23 ar
  39   22   40 1
  40   23   24 ar
  41   23   41 1
  42   24   25 ar
  43   24   27 1
  44   25   26 ar
  45   25   42 1
  46   26   43 1

#	End of record

