#	Name: ASD04220017
#	Creating user name:	WinNT
#	Creation time:	15. 06. 2019 20:48

#	Modifying user name:	WinNT
#	Modification time:	15. 06. 2019 20:48

#	Program:	/corina/corina34_cracker 3.40 0067  02.08.2006

@<TRIPOS>MOLECULE
ASD04220017
  35   36    0    0    0
SMALL
NO_CHARGES


@<TRIPOS>ATOM
   1 C1            -0.0178     1.4620     0.0101 C.3     
   2 N2             0.0021    -0.0041     0.0020 N.3     
   3 C3             0.8378    -0.4954    -1.1053 C.3     
   4 C4             2.3021    -0.2093    -0.7715 C.3     
   5 C5             2.4656     1.2334    -0.3662 C.ar    
   6 C6             3.7415     1.7779    -0.3659 C.ar    
   7 C7             3.9394     3.0967     0.0018 C.ar    
   8 C8             2.8500     3.8794     0.3735 C.ar    
   9 C9             1.5798     3.3320     0.3704 C.ar    
  10 C10            1.3860     2.0087    -0.0004 C.ar    
  11 C11            0.6369    -1.9797    -1.2713 C.2     
  12 O12            0.1844    -2.6336    -0.3615 O.2     
  13 O13            0.9606    -2.5753    -2.4298 O.3     
  14 O14            3.0338     5.1765     0.7385 O.3     
  15 C15            1.8692     5.9179     1.1073 C.3     
  16 O16            5.1922     3.6258     0.0006 O.3     
  17 C17            6.2608     2.7621    -0.3920 C.3     
  18 C18            0.7404    -4.0078    -2.5186 C.3     
  19 H19           -0.5496     1.8194    -0.8717 H       
  20 H20           -0.5327     1.8099     0.9056 H       
  21 H21            0.3247    -0.3662     0.8868 H       
  22 H22            0.5648     0.0194    -2.0265 H       
  23 H23            2.6188    -0.8536     0.0486 H       
  24 H24            2.9189    -0.4112    -1.6472 H       
  25 H25            4.5853     1.1686    -0.6542 H       
  26 H26            0.7336     3.9380     0.6584 H       
  27 H27            1.1749     5.9455     0.2674 H       
  28 H28            1.3886     5.4389     1.9603 H       
  29 H29            2.1556     6.9348     1.3754 H       
  30 H30            6.3044     1.9077     0.2834 H       
  31 H31            6.0898     2.4121    -1.4101 H       
  32 H32            7.2035     3.3077    -0.3490 H       
  33 H33            1.0429    -4.3615    -3.5042 H       
  34 H34            1.3298    -4.5141    -1.7542 H       
  35 H35           -0.3169    -4.2231    -2.3640 H       
@<TRIPOS>BOND
   1    1    2 1
   2    1   10 1
   3    1   19 1
   4    1   20 1
   5    2    3 1
   6    2   21 1
   7    3    4 1
   8    3   11 1
   9    3   22 1
  10    4    5 1
  11    4   23 1
  12    4   24 1
  13    5    6 ar
  14    5   10 ar
  15    6    7 ar
  16    6   25 1
  17    7    8 ar
  18    7   16 1
  19    8    9 ar
  20    8   14 1
  21    9   10 ar
  22    9   26 1
  23   11   12 2
  24   11   13 1
  25   13   18 1
  26   14   15 1
  27   15   27 1
  28   15   28 1
  29   15   29 1
  30   16   17 1
  31   17   30 1
  32   17   31 1
  33   17   32 1
  34   18   33 1
  35   18   34 1
  36   18   35 1

#	End of record

