#	Name: ASD02448092
#	Creating user name:	WinNT
#	Creation time:	15. 06. 2019 20:21

#	Modifying user name:	WinNT
#	Modification time:	15. 06. 2019 20:21

#	Program:	/corina/corina34_cracker 3.40 0067  02.08.2006

@<TRIPOS>MOLECULE
ASD02448092
  81   87    0    0    0
SMALL
NO_CHARGES


@<TRIPOS>ATOM
   1 C1             0.8019     1.0520    -0.6704 C.ar    
   2 C2             0.5990    -0.3113    -0.5576 C.ar    
   3 C3             1.6534    -1.1876    -0.7375 C.ar    
   4 C4             2.9133    -0.7037    -1.0306 C.ar    
   5 C5             3.1206     0.6651    -1.1447 C.ar    
   6 C6             2.0591     1.5427    -0.9633 C.ar    
   7 N7             4.3935     1.1580    -1.4406 N.am    
   8 C8             4.7412     2.4332    -2.0810 C.3     
   9 C9             6.2217     2.5866    -2.2182 C.2     
  10 N10            6.9392     1.5585    -1.7436 N.am    
  11 S11            5.8675     0.4363    -1.1409 S.o2    
  12 O12            6.7338     3.5647    -2.7201 O.2     
  13 O13            6.0463     0.4006     0.2683 O.2     
  14 O14            5.9437    -0.7085    -1.9792 O.2     
  15 N15           -1.5592    -0.9425    -1.4703 N.pl3   
  16 C16           -2.4009     0.0106    -1.9728 C.2     
  17 C17           -1.5799    -1.9905    -2.3227 C.2     
  18 N18           -2.3876    -1.7192    -3.3093 N.2     
  19 C19           -2.9133    -0.4908    -3.1268 C.2     
  20 C20           -3.8783     0.1904    -4.0247 C.ar    
  21 C21           -4.3238    -0.4444    -5.1840 C.ar    
  22 C22           -4.3469     1.4640    -3.7098 C.ar    
  23 C23           -5.2445     2.0938    -4.5483 C.ar    
  24 C24           -5.6796     1.4624    -5.7007 C.ar    
  25 C25           -5.2219     0.1944    -6.0160 C.ar    
  26 C26           -0.7952    -3.2667    -2.1597 C.3     
  27 C27           -1.6653    -4.3119    -1.5104 C.ar    
  28 C28           -2.4319    -5.1546    -2.2948 C.ar    
  29 C29           -1.6899    -4.4287    -0.1323 C.ar    
  30 C30           -2.4846    -5.3844     0.4677 C.ar    
  31 C31           -3.2629    -6.2325    -0.3175 C.ar    
  32 C32           -3.2302    -6.1139    -1.7054 C.ar    
  33 C33           -4.1189    -7.2623     0.3219 C.ar    
  34 C34           -4.8972    -8.1104    -0.4632 C.ar    
  35 C35           -4.1429    -7.3885     1.7094 C.ar    
  36 C36           -4.9408    -8.3481     2.2988 C.ar    
  37 C37           -5.7155    -9.1838     1.5148 C.ar    
  38 C38           -5.6916    -9.0664     0.1368 C.ar    
  39 Cl39          -3.7500    -2.0341    -5.5805 Cl      
  40 Cl40          -6.8091     2.2601    -6.7502 Cl      
  41 C41           -0.7742    -0.8430    -0.2373 C.3     
  42 C42           -6.5841   -10.2303     2.1641 C.3     
  43 C43           -8.0471    -9.9810     1.7924 C.3     
  44 C44           -8.9289   -11.0435     2.4516 C.3     
  45 C45           -8.5078   -12.4307     1.9628 C.3     
  46 C46           -7.0447   -12.6800     2.3344 C.3     
  47 C47           -6.1629   -11.6176     1.6752 C.3     
  48 H48           -0.0248     1.7334    -0.5338 H       
  49 H49            1.4917    -2.2517    -0.6483 H       
  50 H50            3.7364    -1.3887    -1.1706 H       
  51 H51            2.2168     2.6074    -1.0517 H       
  52 H52            4.2851     2.4719    -3.0702 H       
  53 H53            4.3517     3.2534    -1.4780 H       
  54 H54            7.9063     1.4836    -1.7478 H       
  55 H55           -2.6168     0.9748    -1.5368 H       
  56 H56           -4.0086     1.9578    -2.8108 H       
  57 H57           -5.6084     3.0809    -4.3045 H       
  58 H58           -5.5641    -0.2939    -6.9165 H       
  59 H59           -0.4705    -3.6210    -3.1380 H       
  60 H60            0.0769    -3.0796    -1.5332 H       
  61 H61           -2.4061    -5.0616    -3.3705 H       
  62 H62           -1.0860    -3.7711     0.4753 H       
  63 H63           -2.5028    -5.4750     1.5437 H       
  64 H64           -3.8318    -6.7684    -2.3186 H       
  65 H65           -4.8793    -8.0196    -1.5392 H       
  66 H66           -3.5378    -6.7369     2.3224 H       
  67 H67           -4.9602    -8.4468     3.3741 H       
  68 H68           -6.2987    -9.7213    -0.4706 H       
  69 H69           -0.6849    -1.8297     0.2171 H       
  70 H70           -1.2728    -0.1669     0.4572 H       
  71 H71           -6.4700   -10.1765     3.2468 H       
  72 H72           -8.3472    -8.9927     2.1406 H       
  73 H73           -8.1612   -10.0349     0.7097 H       
  74 H74           -8.8149   -10.9896     3.5343 H       
  75 H75           -9.9713   -10.8659     2.1868 H       
  76 H76           -9.1360   -13.1876     2.4324 H       
  77 H77           -8.6219   -12.4846     0.8801 H       
  78 H78           -6.9306   -12.6262     3.4171 H       
  79 H79           -6.7447   -13.6684     1.9862 H       
  80 H80           -6.2770   -11.6714     0.5926 H       
  81 H81           -5.1206   -11.7952     1.9400 H       
@<TRIPOS>BOND
   1    1    2 ar
   2    1    6 ar
   3    1   48 1
   4    2    3 ar
   5    2   41 1
   6    3    4 ar
   7    3   49 1
   8    4    5 ar
   9    4   50 1
  10    5    6 ar
  11    5    7 1
  12    6   51 1
  13    7    8 1
  14    7   11 am
  15    8    9 1
  16    8   52 1
  17    8   53 1
  18    9   10 am
  19    9   12 2
  20   10   11 am
  21   10   54 1
  22   11   13 2
  23   11   14 2
  24   15   16 1
  25   15   17 1
  26   15   41 1
  27   16   19 2
  28   16   55 1
  29   17   18 2
  30   17   26 1
  31   18   19 1
  32   19   20 1
  33   20   21 ar
  34   20   22 ar
  35   21   39 1
  36   21   25 ar
  37   22   23 ar
  38   22   56 1
  39   23   24 ar
  40   23   57 1
  41   24   25 ar
  42   24   40 1
  43   25   58 1
  44   26   27 1
  45   26   59 1
  46   26   60 1
  47   27   28 ar
  48   27   29 ar
  49   28   32 ar
  50   28   61 1
  51   29   30 ar
  52   29   62 1
  53   30   31 ar
  54   30   63 1
  55   31   32 ar
  56   31   33 1
  57   32   64 1
  58   33   34 ar
  59   33   35 ar
  60   34   38 ar
  61   34   65 1
  62   35   36 ar
  63   35   66 1
  64   36   37 ar
  65   36   67 1
  66   37   38 ar
  67   37   42 1
  68   38   68 1
  69   41   69 1
  70   41   70 1
  71   42   43 1
  72   42   47 1
  73   42   71 1
  74   43   44 1
  75   43   72 1
  76   43   73 1
  77   44   45 1
  78   44   74 1
  79   44   75 1
  80   45   46 1
  81   45   76 1
  82   45   77 1
  83   46   47 1
  84   46   78 1
  85   46   79 1
  86   47   80 1
  87   47   81 1

#	End of record

