#	Name: ASD04590354
#	Creating user name:	WinNT
#	Creation time:	15. 06. 2019 20:50

#	Modifying user name:	WinNT
#	Modification time:	15. 06. 2019 20:50

#	Program:	/corina/corina34_cracker 3.40 0067  02.08.2006

@<TRIPOS>MOLECULE
ASD04590354
  35   38    0    0    0
SMALL
NO_CHARGES


@<TRIPOS>ATOM
   1 C1            -0.0167     1.3834     0.0096 C.ar    
   2 C2             0.0021    -0.0041     0.0020 C.ar    
   3 C3             1.1863    -0.6848    -0.0125 C.ar    
   4 C4             2.3948     0.0191    -0.0202 C.ar    
   5 C5             2.3756     1.4250    -0.0129 C.ar    
   6 C6             1.1624     2.0987     0.0022 C.ar    
   7 N7             3.6952    -0.3636    -0.0343 N.2     
   8 C8             4.4665     0.6967    -0.0361 C.2     
   9 N9             3.6970     1.8290    -0.0232 N.pl3   
  10 C10            5.9437     0.6731    -0.0500 C.2     
  11 C11            6.7567    -0.4840    -0.0640 C.2     
  12 C12            8.0506    -0.0799    -0.0738 C.2     
  13 N13            8.0626     1.2789    -0.0665 N.pl3   
  14 N14            6.7358     1.7272    -0.0574 N.2     
  15 N15            6.3047    -1.8131    -0.0666 N.am    
  16 C16            7.1927    -2.8269    -0.0805 C.2     
  17 C17            6.7152    -4.2308    -0.0833 C.2     
  18 O18            8.3847    -2.5904    -0.0907 O.2     
  19 N19            5.4705    -4.6391    -0.0739 N.2     
  20 O20            5.4013    -5.8461    -0.0802 O.3     
  21 C21            6.6146    -6.4152    -0.0949 C.2     
  22 C22            7.5164    -5.4065    -0.1030 C.2     
  23 C23            6.9159    -7.8917    -0.1062 C.3     
  24 H24           -0.9614     1.9069     0.0169 H       
  25 H25           -0.9290    -0.5513     0.0080 H       
  26 H26            1.1893    -1.7648    -0.0176 H       
  27 H27            1.1417     3.1785     0.0075 H       
  28 H28            4.0192     2.7439    -0.0213 H       
  29 H29            8.9178    -0.7234    -0.0851 H       
  30 H30            8.8531     1.8410    -0.0708 H       
  31 H31            5.3532    -2.0018    -0.0585 H       
  32 H32            8.5940    -5.4773    -0.1152 H       
  33 H33            5.9817    -8.4532    -0.1011 H       
  34 H34            7.4840    -8.1397    -1.0028 H       
  35 H35            7.5000    -8.1501     0.7771 H       
@<TRIPOS>BOND
   1    1    2 ar
   2    1    6 ar
   3    1   24 1
   4    2    3 ar
   5    2   25 1
   6    3    4 ar
   7    3   26 1
   8    4    5 ar
   9    4    7 1
  10    5    6 ar
  11    5    9 1
  12    6   27 1
  13    7    8 2
  14    8    9 1
  15    8   10 1
  16    9   28 1
  17   10   11 1
  18   10   14 2
  19   11   12 2
  20   11   15 1
  21   12   13 1
  22   12   29 1
  23   13   14 1
  24   13   30 1
  25   15   16 am
  26   15   31 1
  27   16   17 1
  28   16   18 2
  29   17   19 2
  30   17   22 1
  31   19   20 1
  32   20   21 1
  33   21   22 2
  34   21   23 1
  35   22   32 1
  36   23   33 1
  37   23   34 1
  38   23   35 1

#	End of record

