#	Name: ASD05380089
#	Creating user name:	WinNT
#	Creation time:	15. 06. 2019 20:59

#	Modifying user name:	WinNT
#	Modification time:	15. 06. 2019 20:59

#	Program:	/corina/corina34_cracker 3.40 0067  02.08.2006

@<TRIPOS>MOLECULE
ASD05380089
  49   53    0    0    0
SMALL
NO_CHARGES


@<TRIPOS>ATOM
   1 C1            -0.1401     1.4432    -0.4442 C.ar    
   2 C2             0.0693     0.1192     0.0028 C.ar    
   3 C3             0.9305     2.1962    -0.9215 C.ar    
   4 C4             2.1908     1.6400    -0.9537 C.ar    
   5 C5             2.4001     0.3392    -0.5158 C.ar    
   6 C6             1.3557    -0.4216    -0.0394 C.ar    
   7 N7            -0.9879    -0.5948     0.4639 N.2     
   8 C8            -2.1840    -0.0913     0.5038 C.2     
   9 N9            -2.4772     1.1727     0.0946 N.am    
  10 C10           -1.5050     1.9856    -0.3807 C.2     
  11 C11           -3.7958     1.6387     0.1709 C.ar    
  12 C12           -4.6651     1.4444    -0.8944 C.ar    
  13 C13           -4.2382     2.2908     1.3143 C.ar    
  14 C14           -5.5393     2.7486     1.3866 C.ar    
  15 C15           -6.4011     2.5579     0.3221 C.ar    
  16 C16           -5.9649     1.9046    -0.8160 C.ar    
  17 C17           -3.3046    -0.9508     1.0297 C.3     
  18 N18           -3.0853    -2.3413     0.6238 N.pl3   
  19 C19           -4.1588    -3.2080     0.5155 C.ar    
  20 N20           -5.3950    -2.7952     0.7760 N.ar    
  21 O21           -1.7528     3.1187    -0.7502 O.2     
  22 C22           -3.9678    -4.5432     0.1219 C.ar    
  23 C23           -5.0962    -5.3757     0.0299 C.ar    
  24 N24           -6.2933    -4.8747     0.3160 N.ar    
  25 C25           -6.4251    -3.6151     0.6754 C.ar    
  26 N26           -2.8909    -5.2915    -0.2183 N.2     
  27 C27           -3.2770    -6.5005    -0.5062 C.2     
  28 N28           -4.6293    -6.6028    -0.3681 N.pl3   
  29 C29           -3.3397    -0.8648     2.5569 C.3     
  30 C30           -4.5516    -1.6361     3.0834 C.3     
  31 H31            0.7736     3.2083    -1.2641 H       
  32 H32            3.0230     2.2209    -1.3231 H       
  33 H33            3.3944    -0.0812    -0.5487 H       
  34 H34            1.5308    -1.4320     0.2992 H       
  35 H35           -4.3250     0.9343    -1.7835 H       
  36 H36           -3.5658     2.4394     2.1462 H       
  37 H37           -5.8840     3.2559     2.2756 H       
  38 H38           -7.4182     2.9162     0.3814 H       
  39 H39           -6.6402     1.7575    -1.6458 H       
  40 H40           -4.2532    -0.5992     0.6241 H       
  41 H41           -2.1877    -2.6544     0.4309 H       
  42 H42           -7.4128    -3.2384     0.8968 H       
  43 H43           -2.6226    -7.3041    -0.8098 H       
  44 H44           -5.1634    -7.3977    -0.5222 H       
  45 H45           -2.4272    -1.2984     2.9663 H       
  46 H46           -3.4137     0.1794     2.8604 H       
  47 H47           -4.4776    -2.6804     2.7799 H       
  48 H48           -4.5766    -1.5749     4.1714 H       
  49 H49           -5.4641    -1.2026     2.6740 H       
@<TRIPOS>BOND
   1    1    2 ar
   2    1    3 ar
   3    1   10 1
   4    2    7 1
   5    2    6 ar
   6    3    4 ar
   7    3   31 1
   8    4    5 ar
   9    4   32 1
  10    5    6 ar
  11    5   33 1
  12    6   34 1
  13    7    8 2
  14    8    9 1
  15    8   17 1
  16    9   10 am
  17    9   11 1
  18   10   21 2
  19   11   12 ar
  20   11   13 ar
  21   12   16 ar
  22   12   35 1
  23   13   14 ar
  24   13   36 1
  25   14   15 ar
  26   14   37 1
  27   15   16 ar
  28   15   38 1
  29   16   39 1
  30   17   18 1
  31   17   29 1
  32   17   40 1
  33   18   19 1
  34   18   41 1
  35   19   20 ar
  36   19   22 ar
  37   20   25 ar
  38   22   23 ar
  39   22   26 1
  40   23   24 ar
  41   23   28 1
  42   24   25 ar
  43   25   42 1
  44   26   27 2
  45   27   28 1
  46   27   43 1
  47   28   44 1
  48   29   30 1
  49   29   45 1
  50   29   46 1
  51   30   47 1
  52   30   48 1
  53   30   49 1

#	End of record

