#	Name: ASD03330397
#	Creating user name:	WinNT
#	Creation time:	15. 06. 2019 20:37

#	Modifying user name:	WinNT
#	Modification time:	15. 06. 2019 20:37

#	Program:	/corina/corina34_cracker 3.40 0067  02.08.2006

@<TRIPOS>MOLECULE
ASD03330397
  60   63    0    0    0
SMALL
NO_CHARGES


@<TRIPOS>ATOM
   1 C1            -0.0179     1.4666     0.0101 C.3     
   2 N2             0.0021    -0.0041     0.0020 N.am    
   3 C3             0.5791    -0.6826    -1.1742 C.3     
   4 C4             1.8395     0.0634    -1.5376 C.2     
   5 N5             2.1950     1.2602    -1.0064 N.pl3   
   6 C6             1.4218     1.9926    -0.0008 C.3     
   7 C7             2.8088    -0.2954    -2.4175 C.2     
   8 N8             3.7410     0.6841    -2.4213 N.2     
   9 C9             3.3779     1.6226    -1.5775 C.2     
  10 C10            4.1276     2.8665    -1.2948 C.ar    
  11 C11            5.1488     3.2788    -2.1513 C.ar    
  12 C12            2.8399    -1.5294    -3.2224 C.2     
  13 O13            1.9371    -2.3390    -3.1295 O.2     
  14 C14            3.8999    -2.9876    -4.8617 C.3     
  15 N15            3.8689    -1.7608    -4.0615 N.am    
  16 C16           -0.4915    -0.7107     1.0381 C.2     
  17 O17           -0.4658    -1.9252     1.0124 O.2     
  18 C18            5.8439     4.4400    -1.8824 C.ar    
  19 C19            5.5301     5.1948    -0.7663 C.ar    
  20 C20            4.5186     4.7912     0.0869 C.ar    
  21 C21            3.8125     3.6348    -0.1738 C.ar    
  22 O22           -1.0131    -0.0708     2.1017 O.3     
  23 C23           -1.5262    -0.8957     3.1809 C.3     
  24 C24            4.7786    -4.0388    -6.9510 C.3     
  25 C25            4.7462    -2.7576    -6.1154 C.3     
  26 C26            5.6249    -3.8088    -8.2047 C.3     
  27 C27            5.0139    -2.6758    -9.0317 C.3     
  28 C28            4.9816    -1.3946    -8.1960 C.3     
  29 C29            4.1352    -1.6246    -6.9424 C.3     
  30 C30            4.5109    -4.1206    -4.0347 C.3     
  31 H31           -0.5441     1.8282    -0.8733 H       
  32 H32           -0.5271     1.8186     0.9072 H       
  33 H33            0.8171    -1.7172    -0.9273 H       
  34 H34           -0.1254    -0.6499    -2.0053 H       
  35 H35            1.4195     3.0547    -0.2457 H       
  36 H36            1.8705     1.8456     0.9816 H       
  37 H37            5.3949     2.6903    -3.0227 H       
  38 H38            2.8847    -3.2571    -5.1531 H       
  39 H39            4.5889    -1.1151    -4.1357 H       
  40 H40            6.6348     4.7601    -2.5445 H       
  41 H41            6.0774     6.1027    -0.5599 H       
  42 H42            4.2784     5.3848     0.9566 H       
  43 H43            3.0231     3.3208     0.4930 H       
  44 H44           -1.9163    -0.2564     3.9729 H       
  45 H45           -2.3248    -1.5336     2.8023 H       
  46 H46           -0.7226    -1.5162     3.5775 H       
  47 H47            5.2139    -4.8460    -6.3619 H       
  48 H48            3.7634    -4.3083    -7.2424 H       
  49 H49            5.7614    -2.4881    -5.8240 H       
  50 H50            6.6401    -3.5393    -7.9133 H       
  51 H51            5.6480    -4.7216    -8.8001 H       
  52 H52            5.6169    -2.5119    -9.9248 H       
  53 H53            3.9987    -2.9453    -9.3231 H       
  54 H54            5.9968    -1.1251    -7.9047 H       
  55 H55            4.5463    -0.5874    -8.7852 H       
  56 H56            3.1201    -1.8941    -7.2337 H       
  57 H57            4.1122    -0.7118    -6.3470 H       
  58 H58            3.9079    -4.2845    -3.1416 H       
  59 H59            4.5339    -5.0334    -4.6301 H       
  60 H60            5.5260    -3.8512    -3.7434 H       
@<TRIPOS>BOND
   1    1    2 1
   2    1    6 1
   3    1   31 1
   4    1   32 1
   5    2    3 1
   6    2   16 am
   7    3    4 1
   8    3   33 1
   9    3   34 1
  10    4    5 1
  11    4    7 2
  12    5    6 1
  13    5    9 1
  14    6   35 1
  15    6   36 1
  16    7    8 1
  17    7   12 1
  18    8    9 2
  19    9   10 1
  20   10   11 ar
  21   10   21 ar
  22   11   18 ar
  23   11   37 1
  24   12   13 2
  25   12   15 am
  26   14   15 1
  27   14   30 1
  28   14   25 1
  29   14   38 1
  30   15   39 1
  31   16   17 2
  32   16   22 1
  33   18   19 ar
  34   18   40 1
  35   19   20 ar
  36   19   41 1
  37   20   21 ar
  38   20   42 1
  39   21   43 1
  40   22   23 1
  41   23   44 1
  42   23   45 1
  43   23   46 1
  44   24   25 1
  45   24   26 1
  46   24   47 1
  47   24   48 1
  48   25   29 1
  49   25   49 1
  50   26   27 1
  51   26   50 1
  52   26   51 1
  53   27   28 1
  54   27   52 1
  55   27   53 1
  56   28   29 1
  57   28   54 1
  58   28   55 1
  59   29   56 1
  60   29   57 1
  61   30   58 1
  62   30   59 1
  63   30   60 1

#	End of record

