#	Name: ASD01150404
#	Creating user name:	WinNT
#	Creation time:	15. 06. 2019 19:04

#	Modifying user name:	WinNT
#	Modification time:	15. 06. 2019 19:04

#	Program:	/corina/corina34_cracker 3.40 0067  02.08.2006

@<TRIPOS>MOLECULE
ASD01150404
  44   46    0    0    0
SMALL
NO_CHARGES


@<TRIPOS>ATOM
   1 C1             0.3805     1.5257     0.7458 C.ar    
   2 C2             0.4560     0.1761     1.0298 C.ar    
   3 C3             1.2861    -0.6435     0.2891 C.ar    
   4 C4             2.0476    -0.1122    -0.7441 C.ar    
   5 C5             1.9737     1.2431    -1.0324 C.ar    
   6 C6             1.1393     2.0635    -0.2868 C.ar    
   7 N7             1.0619     3.4311    -0.5743 N.am    
   8 C8            -0.1428     4.0149    -0.7032 C.2     
   9 N9            -0.2509     5.3282    -0.9790 N.am    
  10 C10            0.8591     6.0799    -1.1310 C.2     
  11 C11            2.1741     5.4484    -0.9916 C.2     
  12 N12            2.2394     4.1744    -0.7183 N.2     
  13 O13            0.7693     7.2677    -1.3813 O.2     
  14 C14           -1.5745     5.9413    -1.1146 C.3     
  15 O15           -1.1495     3.3465    -0.5689 O.2     
  16 C16           -2.0358     6.4430     0.2295 C.ar    
  17 C17           -1.7340     7.7324     0.6262 C.ar    
  18 C18           -2.1569     8.1937     1.8583 C.ar    
  19 C19           -2.8832     7.3639     2.6956 C.ar    
  20 C20           -3.1848     6.0726     2.2972 C.ar    
  21 C21           -2.7654     5.6152     1.0624 C.ar    
  22 N22            2.8886    -0.9427    -1.4930 N.am    
  23 C23            2.5155    -2.2084    -1.7675 C.2     
  24 O24            1.4908    -2.6543    -1.2961 O.2     
  25 C25            3.3714    -3.0695    -2.6602 C.3     
  26 C26            3.4330     6.2603    -1.1560 C.3     
  27 F27           -3.2967     7.8136     3.9006 F       
  28 H28           -0.2724     2.1629     1.3239 H       
  29 H29           -0.1347    -0.2395     1.8328 H       
  30 H30            1.3432    -1.6983     0.5139 H       
  31 H31            2.5650     1.6587    -1.8349 H       
  32 H32           -1.5186     6.7753    -1.8141 H       
  33 H33           -2.2815     5.2005    -1.4881 H       
  34 H34           -1.1672     8.3794    -0.0269 H       
  35 H35           -1.9207     9.2010     2.1682 H       
  36 H36           -3.7512     5.4244     2.9495 H       
  37 H37           -3.0006     4.6081     0.7515 H       
  38 H38            3.7401    -0.6076    -1.8147 H       
  39 H39            4.2433    -2.5018    -2.9852 H       
  40 H40            3.6971    -3.9522    -2.1098 H       
  41 H41            2.7929    -3.3774    -3.5312 H       
  42 H42            3.7315     6.6675    -0.1899 H       
  43 H43            4.2283     5.6232    -1.5431 H       
  44 H44            3.2499     7.0773    -1.8538 H       
@<TRIPOS>BOND
   1    1    2 ar
   2    1    6 ar
   3    1   28 1
   4    2    3 ar
   5    2   29 1
   6    3    4 ar
   7    3   30 1
   8    4    5 ar
   9    4   22 1
  10    5    6 ar
  11    5   31 1
  12    6    7 1
  13    7    8 am
  14    7   12 1
  15    8    9 am
  16    8   15 2
  17    9   10 am
  18    9   14 1
  19   10   11 1
  20   10   13 2
  21   11   12 2
  22   11   26 1
  23   14   16 1
  24   14   32 1
  25   14   33 1
  26   16   17 ar
  27   16   21 ar
  28   17   18 ar
  29   17   34 1
  30   18   19 ar
  31   18   35 1
  32   19   20 ar
  33   19   27 1
  34   20   21 ar
  35   20   36 1
  36   21   37 1
  37   22   23 am
  38   22   38 1
  39   23   24 2
  40   23   25 1
  41   25   39 1
  42   25   40 1
  43   25   41 1
  44   26   42 1
  45   26   43 1
  46   26   44 1

#	End of record

