#	Name: ASD01880969
#	Creating user name:	WinNT
#	Creation time:	15. 06. 2019 19:41

#	Modifying user name:	WinNT
#	Modification time:	15. 06. 2019 19:41

#	Program:	/corina/corina34_cracker 3.40 0067  02.08.2006

@<TRIPOS>MOLECULE
ASD01880969
  50   53    0    0    0
SMALL
NO_CHARGES


@<TRIPOS>ATOM
   1 N1            -0.0158     1.3145     0.0093 N.ar    
   2 C2             0.0021    -0.0041     0.0020 C.ar    
   3 N3             1.1326    -0.6838    -0.0124 N.ar    
   4 C4             2.3029    -0.0619    -0.0203 C.ar    
   5 C5             2.3326     1.3190    -0.0131 C.ar    
   6 C6             1.1186     2.0084     0.0022 C.ar    
   7 C7             3.6431     2.0631    -0.0212 C.3     
   8 O8             4.7225     1.1267    -0.0361 O.3     
   9 C9             5.9802     1.6364    -0.0449 C.ar    
  10 C10            7.0772     0.7798    -0.0595 C.ar    
  11 C11            8.3490     1.2955    -0.0689 C.ar    
  12 C12            8.5519     2.6798    -0.0638 C.ar    
  13 C13            7.4463     3.5368    -0.0490 C.ar    
  14 C14            6.1710     3.0123    -0.0450 C.ar    
  15 C15            9.7192     0.6647    -0.0854 C.3     
  16 N16           10.6803     1.7735    -0.0891 N.am    
  17 C17           10.0022     2.9339    -0.0766 C.2     
  18 O18           10.5137     4.0369    -0.0763 O.2     
  19 Cl19          -1.5031    -0.8689     0.0123 Cl      
  20 Cl20           7.6793     5.2571    -0.0420 Cl      
  21 N21            1.0962     3.3936     0.0094 N.pl3   
  22 C22           -0.1842     4.1054     0.0254 C.3     
  23 C23            0.0672     5.5913     0.0305 C.ar    
  24 C24            0.1708     6.2788    -1.1643 C.ar    
  25 C25            0.4014     7.6418    -1.1597 C.ar    
  26 C26            0.5279     8.3173     0.0397 C.ar    
  27 C27            0.4234     7.6300     1.2345 C.ar    
  28 C28            0.1885     6.2677     1.2299 C.ar    
  29 C29           12.6323     1.5986    -1.5522 C.3     
  30 C30           12.1389     1.6380    -0.1045 C.3     
  31 H31            3.2225    -0.6281    -0.0317 H       
  32 H32            3.6972     2.6941    -0.9083 H       
  33 H33            3.7135     2.6845     0.8716 H       
  34 H34            6.9276    -0.2898    -0.0632 H       
  35 H35            5.3174     3.6738    -0.0340 H       
  36 H36            9.8595     0.0501     0.8037 H       
  37 H37            9.8421     0.0592    -0.9834 H       
  38 H38            1.9282     3.8922     0.0038 H       
  39 H39           -0.7600     3.8374    -0.8604 H       
  40 H40           -0.7427     3.8284     0.9195 H       
  41 H41            0.0719     5.7511    -2.1014 H       
  42 H42            0.4831     8.1788    -2.0931 H       
  43 H43            0.7088     9.3821     0.0433 H       
  44 H44            0.5226     8.1577     2.1715 H       
  45 H45            0.1068     5.7307     2.1633 H       
  46 H46           12.1830     0.7488    -2.0661 H       
  47 H47           12.3477     2.5211    -2.0583 H       
  48 H48           13.7175     1.4978    -1.5636 H       
  49 H49           12.5882     2.4878     0.4095 H       
  50 H50           12.4235     0.7155     0.4016 H       
@<TRIPOS>BOND
   1    1    2 ar
   2    1    6 ar
   3    2    3 ar
   4    2   19 1
   5    3    4 ar
   6    4    5 ar
   7    4   31 1
   8    5    6 ar
   9    5    7 1
  10    6   21 1
  11    7    8 1
  12    7   32 1
  13    7   33 1
  14    8    9 1
  15    9   10 ar
  16    9   14 ar
  17   10   11 ar
  18   10   34 1
  19   11   12 ar
  20   11   15 1
  21   12   13 ar
  22   12   17 1
  23   13   14 ar
  24   13   20 1
  25   14   35 1
  26   15   16 1
  27   15   36 1
  28   15   37 1
  29   16   17 am
  30   16   30 1
  31   17   18 2
  32   21   22 1
  33   21   38 1
  34   22   23 1
  35   22   39 1
  36   22   40 1
  37   23   24 ar
  38   23   28 ar
  39   24   25 ar
  40   24   41 1
  41   25   26 ar
  42   25   42 1
  43   26   27 ar
  44   26   43 1
  45   27   28 ar
  46   27   44 1
  47   28   45 1
  48   29   30 1
  49   29   46 1
  50   29   47 1
  51   29   48 1
  52   30   49 1
  53   30   50 1

#	End of record

