#	Name: ASD01916242
#	Creating user name:	WinNT
#	Creation time:	15. 06. 2019 20:07

#	Modifying user name:	WinNT
#	Modification time:	15. 06. 2019 20:07

#	Program:	/corina/corina34_cracker 3.40 0067  02.08.2006

@<TRIPOS>MOLECULE
ASD01916242
  34   36    0    0    0
SMALL
NO_CHARGES


@<TRIPOS>ATOM
   1 C1             0.4262     1.2265    -0.4143 C.ar    
   2 C2             0.6388    -0.1378    -0.3269 C.ar    
   3 C3             1.7844    -0.6252     0.2714 C.ar    
   4 C4             2.7310     0.2603     0.7891 C.ar    
   5 C5             2.5150     1.6360     0.6995 C.ar    
   6 C6             1.3629     2.1143     0.0982 C.ar    
   7 O7             1.1491     3.4533     0.0092 O.3     
   8 C8             1.6340     4.1058    -1.0799 C.ar    
   9 C9             1.5440     5.4904    -1.1808 C.ar    
  10 N10            2.0279     6.0884    -2.2570 N.ar    
  11 C11            2.5886     5.3905    -3.2241 C.ar    
  12 N12            2.6923     4.0780    -3.1657 N.ar    
  13 C13            2.2383     3.4070    -2.1200 C.ar    
  14 C14            3.9580    -0.2575     1.4304 C.2     
  15 N15            4.1642    -1.5866     1.5161 N.am    
  16 O16            4.7811     0.5156     1.8806 O.2     
  17 C17            5.3179    -2.0735     2.1192 C.2     
  18 S18            6.5997    -1.0871     2.8171 S.3     
  19 C19            7.4798    -2.5490     3.2581 C.2     
  20 C20            6.7647    -3.6034     2.8597 C.2     
  21 N21            5.6201    -3.3275     2.2630 N.2     
  22 Cl22          -0.5378    -1.2401    -0.9704 Cl      
  23 C23            7.2317    -5.0188     3.0822 C.3     
  24 F24            8.6730    -2.5946     3.8900 F       
  25 H25           -0.4693     1.6024    -0.8868 H       
  26 H26            1.9474    -1.6907     0.3388 H       
  27 H27            3.2439     2.3257     1.0987 H       
  28 H28            1.0854     6.0686    -0.3923 H       
  29 H29            2.9739     5.9090    -4.0896 H       
  30 H30            2.3266     2.3314    -2.0787 H       
  31 H31            3.5074    -2.2034     1.1569 H       
  32 H32            6.8626    -5.3763     4.0435 H       
  33 H33            6.8490    -5.6572     2.2859 H       
  34 H34            8.3214    -5.0468     3.0783 H       
@<TRIPOS>BOND
   1    1    2 ar
   2    1    6 ar
   3    1   25 1
   4    2    3 ar
   5    2   22 1
   6    3    4 ar
   7    3   26 1
   8    4    5 ar
   9    4   14 1
  10    5    6 ar
  11    5   27 1
  12    6    7 1
  13    7    8 1
  14    8    9 ar
  15    8   13 ar
  16    9   10 ar
  17    9   28 1
  18   10   11 ar
  19   11   12 ar
  20   11   29 1
  21   12   13 ar
  22   13   30 1
  23   14   15 am
  24   14   16 2
  25   15   17 1
  26   15   31 1
  27   17   18 1
  28   17   21 2
  29   18   19 1
  30   19   20 2
  31   19   24 1
  32   20   21 1
  33   20   23 1
  34   23   32 1
  35   23   33 1
  36   23   34 1

#	End of record

