#	Name: ASD01816874
#	Creating user name:	WinNT
#	Creation time:	15. 06. 2019 19:36

#	Modifying user name:	WinNT
#	Modification time:	15. 06. 2019 19:36

#	Program:	/corina/corina34_cracker 3.40 0067  02.08.2006

@<TRIPOS>MOLECULE
ASD01816874
  47   50    0    0    0
SMALL
NO_CHARGES


@<TRIPOS>ATOM
   1 C1            -0.0168     1.3897     0.0097 C.ar    
   2 C2             0.0021    -0.0041     0.0020 C.ar    
   3 C3             1.1796    -0.6877    -0.0129 C.ar    
   4 C4             2.3927     0.0187    -0.0207 C.ar    
   5 C5             2.3768     1.4381    -0.0130 C.ar    
   6 C6             1.1385     2.1078     0.0025 C.ar    
   7 C7             3.6297    -0.6529    -0.0357 C.ar    
   8 C8             4.7711     0.0956    -0.0422 C.ar    
   9 C9             4.6871     1.4959    -0.0340 C.ar    
  10 N10            3.5238     2.1168    -0.0199 N.ar    
  11 C11            5.9353     2.2963    -0.0412 C.2     
  12 N12            5.8725     3.6426    -0.0335 N.am    
  13 O13            7.0146     1.7386    -0.0541 O.2     
  14 C14            7.1057     4.4335    -0.0406 C.3     
  15 C15            6.8364     5.8081     0.5793 C.3     
  16 C16            3.6922    -2.1586    -0.0438 C.3     
  17 C17            3.5760    -2.6586    -1.4607 C.ar    
  18 C18            4.5479    -3.4950    -1.9813 C.ar    
  19 N19            2.5434    -2.3028    -2.2042 N.ar    
  20 C20            2.4413    -2.7416    -3.4466 C.ar    
  21 C21            3.4156    -3.5735    -3.9687 C.ar    
  22 N22            4.4458    -3.9336    -3.2234 N.ar    
  23 C23            8.1091     6.6549     0.4960 C.3     
  24 O24            8.5184     6.7643    -0.8688 O.3     
  25 C25            8.8293     5.5139    -1.4867 C.3     
  26 C26            7.5856     4.6212    -1.4831 C.3     
  27 O27            6.4575     5.6488     1.9479 O.3     
  28 H28           -0.9643     1.9080     0.0170 H       
  29 H29           -0.9302    -0.5493     0.0084 H       
  30 H30            1.1803    -1.7677    -0.0184 H       
  31 H31            1.1059     3.1873     0.0090 H       
  32 H32            5.7363    -0.3889    -0.0533 H       
  33 H33            5.0108     4.0879    -0.0231 H       
  34 H34            7.8732     3.9174     0.5362 H       
  35 H35            6.0333     6.3029     0.0332 H       
  36 H36            4.6418    -2.4851     0.3800 H       
  37 H37            2.8717    -2.5595     0.5513 H       
  38 H38            5.3901    -3.7888    -1.3723 H       
  39 H39            1.5970    -2.4511    -4.0543 H       
  40 H40            3.3319    -3.9324    -4.9839 H       
  41 H41            7.9112     7.6490     0.8970 H       
  42 H42            8.9004     6.1798     1.0758 H       
  43 H43            9.1503     5.6860    -2.5141 H       
  44 H44            9.6301     5.0239    -0.9328 H       
  45 H45            7.8324     3.6510    -1.9141 H       
  46 H46            6.7976     5.0921    -2.0708 H       
  47 H47            6.2715     6.4810     2.4039 H       
@<TRIPOS>BOND
   1    1    2 ar
   2    1    6 ar
   3    1   28 1
   4    2    3 ar
   5    2   29 1
   6    3    4 ar
   7    3   30 1
   8    4    5 ar
   9    4    7 ar
  10    5    6 ar
  11    5   10 ar
  12    6   31 1
  13    7    8 ar
  14    7   16 1
  15    8    9 ar
  16    8   32 1
  17    9   10 ar
  18    9   11 1
  19   11   12 am
  20   11   13 2
  21   12   14 1
  22   12   33 1
  23   14   15 1
  24   14   26 1
  25   14   34 1
  26   15   23 1
  27   15   27 1
  28   15   35 1
  29   16   17 1
  30   16   36 1
  31   16   37 1
  32   17   18 ar
  33   17   19 ar
  34   18   22 ar
  35   18   38 1
  36   19   20 ar
  37   20   21 ar
  38   20   39 1
  39   21   22 ar
  40   21   40 1
  41   23   24 1
  42   23   41 1
  43   23   42 1
  44   24   25 1
  45   25   26 1
  46   25   43 1
  47   25   44 1
  48   26   45 1
  49   26   46 1
  50   27   47 1

#	End of record

