#	Name: ASD02039346
#	Creating user name:	WinNT
#	Creation time:	15. 06. 2019 20:18

#	Modifying user name:	WinNT
#	Modification time:	15. 06. 2019 20:18

#	Program:	/corina/corina34_cracker 3.40 0067  02.08.2006

@<TRIPOS>MOLECULE
ASD02039346
  51   53    0    0    0
SMALL
NO_CHARGES


@<TRIPOS>ATOM
   1 C1            -0.1345     1.5598    -0.1872 C.ar    
   2 C2            -0.1559     0.1782    -0.0590 C.ar    
   3 C3            -1.3624    -0.4920    -0.1418 C.ar    
   4 C4            -2.5120     1.4849    -0.4578 C.ar    
   5 C5            -1.3322     2.2232    -0.3899 C.ar    
   6 C6            -3.8034     2.1806    -0.6744 C.ar    
   7 C7             1.1630     2.3214    -0.1015 C.3     
   8 N8             1.8164     2.3221    -1.4128 N.am    
   9 C9             1.4076     3.2894    -2.4343 C.3     
  10 C10            2.7936     1.4329    -1.6793 C.2     
  11 C11            3.1433     0.4029    -0.6857 C.2     
  12 C12            4.1487    -0.5129    -0.7932 C.2     
  13 N13            2.5275     0.1960     0.5064 N.2     
  14 C14            3.1088    -0.7980     1.1135 C.2     
  15 N15            4.1201    -1.2619     0.3341 N.pl3   
  16 O16            3.3866     1.4809    -2.7400 O.2     
  17 C17            5.0182    -2.3738     0.6554 C.3     
  18 C18           -4.9881     1.4488    -0.7435 C.ar    
  19 N19           -2.4880     0.1632    -0.3408 N.ar    
  20 C20            2.5763     4.2263    -2.7462 C.3     
  21 C21            0.9973     2.5449    -3.7064 C.3     
  22 C22           -3.8361     3.5684    -0.8037 C.ar    
  23 C23           -5.0384     4.2125    -1.0051 C.ar    
  24 C24           -6.2161     3.4803    -1.0787 C.ar    
  25 C25           -6.1873     2.0985    -0.9451 C.ar    
  26 O26           -7.3992     4.1178    -1.2764 O.3     
  27 C27           -8.5718     3.3036    -1.3420 C.3     
  28 H28            0.7613    -0.3684     0.1036 H       
  29 H29           -1.3824    -1.5673    -0.0425 H       
  30 H30           -1.3531     3.2988    -0.4849 H       
  31 H31            0.9622     3.3480     0.2049 H       
  32 H32            1.8163     1.8451     0.6296 H       
  33 H33            0.5633     3.8719    -2.0659 H       
  34 H34            4.8357    -0.6200    -1.6197 H       
  35 H35            2.8336    -1.1887     2.0820 H       
  36 H36            4.5913    -3.3050     0.2829 H       
  37 H37            5.9875    -2.2053     0.1863 H       
  38 H38            5.1440    -2.4386     1.7362 H       
  39 H39           -4.9664     0.3740    -0.6396 H       
  40 H40            3.4481     3.6373    -3.0312 H       
  41 H41            2.3016     4.8891    -3.5668 H       
  42 H42            2.8118     4.8199    -1.8629 H       
  43 H43            0.1124     1.9412    -3.5046 H       
  44 H44            0.7738     3.2655    -4.4931 H       
  45 H45            1.8132     1.8975    -4.0278 H       
  46 H46           -2.9206     4.1384    -0.7458 H       
  47 H47           -5.0644     5.2875    -1.1053 H       
  48 H48           -7.1048     1.5317    -1.0031 H       
  49 H49           -8.4781     2.5975    -2.1671 H       
  50 H50           -8.6867     2.7560    -0.4065 H       
  51 H51           -9.4448     3.9361    -1.5024 H       
@<TRIPOS>BOND
   1    1    2 ar
   2    1    7 1
   3    1    5 ar
   4    2    3 ar
   5    2   28 1
   6    3   19 ar
   7    3   29 1
   8    4    5 ar
   9    4    6 1
  10    4   19 ar
  11    5   30 1
  12    6   18 ar
  13    6   22 ar
  14    7    8 1
  15    7   31 1
  16    7   32 1
  17    8    9 1
  18    8   10 am
  19    9   21 1
  20    9   20 1
  21    9   33 1
  22   10   11 1
  23   10   16 2
  24   11   12 2
  25   11   13 1
  26   12   15 1
  27   12   34 1
  28   13   14 2
  29   14   15 1
  30   14   35 1
  31   15   17 1
  32   17   36 1
  33   17   37 1
  34   17   38 1
  35   18   25 ar
  36   18   39 1
  37   20   40 1
  38   20   41 1
  39   20   42 1
  40   21   43 1
  41   21   44 1
  42   21   45 1
  43   22   23 ar
  44   22   46 1
  45   23   24 ar
  46   23   47 1
  47   24   25 ar
  48   24   26 1
  49   25   48 1
  50   26   27 1
  51   27   49 1
  52   27   50 1
  53   27   51 1

#	End of record

