#	Name: ASD01411179
#	Creating user name:	WinNT
#	Creation time:	15. 06. 2019 19:19

#	Modifying user name:	WinNT
#	Modification time:	15. 06. 2019 19:19

#	Program:	/corina/corina34_cracker 3.40 0067  02.08.2006

@<TRIPOS>MOLECULE
ASD01411179
  73   75    0    0    0
SMALL
NO_CHARGES


@<TRIPOS>ATOM
   1 C1             0.9780     1.9994     2.0871 C.ar    
   2 C2             0.8200     0.6467     1.9173 C.ar    
   3 C3             1.9128    -0.1780     1.6583 C.ar    
   4 C4             3.1809     0.3812     1.5783 C.ar    
   5 C5             3.3463     1.7416     1.7506 C.ar    
   6 C6             2.2509     2.5565     2.0038 C.ar    
   7 P7            -0.8158    -0.1399     2.0256 P.3     
   8 N8            -0.5587    -1.7641     2.1253 N.2     
   9 C9             0.6159    -2.2482     1.8606 C.2     
  10 N10            1.7174    -1.5459     1.4778 N.pl3   
  11 C11            0.7736    -3.7092     1.9878 C.2     
  12 C12           -0.2068    -4.5787     2.3574 C.2     
  13 C13            0.4137    -5.9568     2.3484 C.3     
  14 N14            1.8120    -5.7679     1.9439 N.am    
  15 C15            2.0082    -4.4545     1.7304 C.2     
  16 C16            2.8155    -6.8245     1.7931 C.3     
  17 C17            2.7037    -7.4384     0.3962 C.3     
  18 C18            3.6619    -8.6259     0.2828 C.3     
  19 C19            3.2318    -9.7231     1.2585 C.3     
  20 C20            3.6297    -9.1725    -1.1459 C.3     
  21 C21            5.0822    -8.1694     0.6223 C.3     
  22 O22           -1.5261     0.3348     3.2342 O.2     
  23 O23           -1.6782     0.2008     0.7095 O.3     
  24 O24           -1.4778    -4.2714     2.6695 O.3     
  25 O25            3.0609    -3.9565     1.3781 O.2     
  26 N26            2.4262     3.9343     2.1743 N.am    
  27 S27            2.3205     4.6016     3.6862 S.o2    
  28 O28            2.5491     5.9880     3.4741 O.2     
  29 O29            1.0773     4.1328     4.1900 O.2     
  30 C30            3.6991     3.8623     4.6046 C.3     
  31 C31           -2.0149     1.5348     0.3233 C.3     
  32 C32           -2.8357     1.5003    -0.9674 C.3     
  33 C33            0.3484    -6.5733     3.7471 C.3     
  34 C34           -1.1122    -6.8303     4.1235 C.3     
  35 C35           -1.6985    -7.8952     3.1944 C.3     
  36 C36           -1.1873    -7.3194     5.5713 C.3     
  37 H37            0.1207     2.6275     2.2794 H       
  38 H38            4.0373    -0.2468     1.3817 H       
  39 H39            4.3338     2.1742     1.6879 H       
  40 H40            2.4282    -2.0407     1.0410 H       
  41 H41           -0.1015    -6.5959     1.6313 H       
  42 H42            3.8113    -6.4014     1.9255 H       
  43 H43            2.6460    -7.5964     2.5438 H       
  44 H44            1.6818    -7.7789     0.2296 H       
  45 H45            2.9635    -6.6893    -0.3518 H       
  46 H46            2.1873    -9.9788     1.0803 H       
  47 H47            3.8527   -10.6064     1.1086 H       
  48 H48            3.3491    -9.3659     2.2816 H       
  49 H49            3.9360    -8.3908    -1.8410 H       
  50 H50            4.3122   -10.0185    -1.2267 H       
  51 H51            2.6178    -9.4977    -1.3878 H       
  52 H52            5.1051    -7.7800     1.6401 H       
  53 H53            5.7647    -9.0154     0.5415 H       
  54 H54            5.3885    -7.3877    -0.0728 H       
  55 H55           -1.7266    -3.3379     2.6286 H       
  56 H56            2.6095     4.4986     1.4068 H       
  57 H57            4.6430     4.1846     4.1649 H       
  58 H58            3.6553     4.1824     5.6456 H       
  59 H59            3.6275     2.7758     4.5552 H       
  60 H60           -2.6000     2.0051     1.1136 H       
  61 H61           -1.1017     2.1066     0.1580 H       
  62 H62           -3.0925     2.5178    -1.2620 H       
  63 H63           -2.2506     1.0300    -1.7577 H       
  64 H64           -3.7489     0.9285    -0.8021 H       
  65 H65            0.8967    -7.5153     3.7550 H       
  66 H66            0.7940    -5.8875     4.4677 H       
  67 H67           -1.6815    -5.9064     4.0221 H       
  68 H68           -2.7573    -8.0280     3.4165 H       
  69 H69           -1.5816    -7.5775     2.1583 H       
  70 H70           -1.1742    -8.8386     3.3465 H       
  71 H71           -0.7696    -6.5608     6.2332 H       
  72 H72           -2.2278    -7.5025     5.8394 H       
  73 H73           -0.6180    -8.2434     5.6726 H       
@<TRIPOS>BOND
   1    1    2 ar
   2    1    6 ar
   3    1   37 1
   4    2    3 ar
   5    2    7 1
   6    3    4 ar
   7    3   10 1
   8    4    5 ar
   9    4   38 1
  10    5    6 ar
  11    5   39 1
  12    6   26 1
  13    7    8 1
  14    7   22 2
  15    7   23 1
  16    8    9 2
  17    9   10 1
  18    9   11 1
  19   10   40 1
  20   11   12 2
  21   11   15 1
  22   12   13 1
  23   12   24 1
  24   13   14 1
  25   13   33 1
  26   13   41 1
  27   14   15 am
  28   14   16 1
  29   15   25 2
  30   16   17 1
  31   16   42 1
  32   16   43 1
  33   17   18 1
  34   17   44 1
  35   17   45 1
  36   18   19 1
  37   18   20 1
  38   18   21 1
  39   19   46 1
  40   19   47 1
  41   19   48 1
  42   20   49 1
  43   20   50 1
  44   20   51 1
  45   21   52 1
  46   21   53 1
  47   21   54 1
  48   23   31 1
  49   24   55 1
  50   26   27 am
  51   26   56 1
  52   27   28 2
  53   27   29 2
  54   27   30 1
  55   30   57 1
  56   30   58 1
  57   30   59 1
  58   31   32 1
  59   31   60 1
  60   31   61 1
  61   32   62 1
  62   32   63 1
  63   32   64 1
  64   33   34 1
  65   33   65 1
  66   33   66 1
  67   34   35 1
  68   34   36 1
  69   34   67 1
  70   35   68 1
  71   35   69 1
  72   35   70 1
  73   36   71 1
  74   36   72 1
  75   36   73 1

#	End of record

