#	Name: ASD01916003
#	Creating user name:	WinNT
#	Creation time:	15. 06. 2019 20:06

#	Modifying user name:	WinNT
#	Modification time:	15. 06. 2019 20:06

#	Program:	/corina/corina34_cracker 3.40 0067  02.08.2006

@<TRIPOS>MOLECULE
ASD01916003
  42   43    0    0    0
SMALL
NO_CHARGES


@<TRIPOS>ATOM
   1 C1            -0.0251     1.4099    -0.1002 C.ar    
   2 C2            -0.0011     0.0093    -0.0721 C.ar    
   3 C3            -1.2081    -0.6678    -0.0325 C.ar    
   4 C4            -2.3998     0.0638    -0.0220 C.ar    
   5 C5            -3.6930    -0.6495     0.0201 C.2     
   6 N6            -4.8412     0.0441     0.1504 N.am    
   7 O7            -3.7214    -1.8620    -0.0627 O.2     
   8 C8            -6.1292    -0.6485     0.0642 C.3     
   9 C9            -6.2120    -1.7101     1.1628 C.3     
  10 C10           -7.2644     0.3614     0.2442 C.3     
  11 C11           -6.2565    -1.3201    -1.3046 C.3     
  12 C12            1.1964     2.1561    -0.1415 C.1     
  13 C13            2.1978     2.7679    -0.1753 C.1     
  14 C14            3.4193     3.5142    -0.2166 C.ar    
  15 C15            3.3875     4.9115    -0.2445 C.ar    
  16 C16            5.8209     3.5726    -0.2632 C.ar    
  17 C17            4.5669     5.6241    -0.2843 C.ar    
  18 N18           -2.3840     1.3928    -0.0492 N.ar    
  19 C19           -1.2618     2.0706    -0.0933 C.ar    
  20 C20            4.6486     2.8485    -0.2234 C.ar    
  21 C21           -4.8012     1.4908     0.3784 C.3     
  22 F22           -1.2342    -2.0183    -0.0047 F       
  23 C23            5.7826     4.9580    -0.2970 C.ar    
  24 F24            6.9350     5.6621    -0.3360 F       
  25 H25            0.9354    -0.5286    -0.0814 H       
  26 H26           -6.1214    -1.2316     2.1380 H       
  27 H27           -7.1703    -2.2254     1.0986 H       
  28 H28           -5.4033    -2.4296     1.0345 H       
  29 H29           -7.2054     1.1177    -0.5385 H       
  30 H30           -8.2227    -0.1540     0.1800 H       
  31 H31           -7.1738     0.8399     1.2194 H       
  32 H32           -5.4477    -2.0396    -1.4329 H       
  33 H33           -7.2148    -1.8355    -1.3688 H       
  34 H34           -6.1975    -0.5638    -2.0873 H       
  35 H35            2.4410     5.4316    -0.2354 H       
  36 H36            6.7712     3.0594    -0.2734 H       
  37 H37            4.5437     6.7037    -0.3059 H       
  38 H38           -1.2905     3.1500    -0.1142 H       
  39 H39            4.6798     1.7693    -0.1970 H       
  40 H40           -4.7077     2.0067    -0.5772 H       
  41 H41           -5.7198     1.8061     0.8732 H       
  42 H42           -3.9464     1.7358     1.0087 H       
@<TRIPOS>BOND
   1    1    2 ar
   2    1   12 1
   3    1   19 ar
   4    2    3 ar
   5    2   25 1
   6    3    4 ar
   7    3   22 1
   8    4   18 ar
   9    4    5 1
  10    5    6 am
  11    5    7 2
  12    6    8 1
  13    6   21 1
  14    8    9 1
  15    8   10 1
  16    8   11 1
  17    9   26 1
  18    9   27 1
  19    9   28 1
  20   10   29 1
  21   10   30 1
  22   10   31 1
  23   11   32 1
  24   11   33 1
  25   11   34 1
  26   12   13 3
  27   13   14 1
  28   14   15 ar
  29   14   20 ar
  30   15   17 ar
  31   15   35 1
  32   16   23 ar
  33   16   20 ar
  34   16   36 1
  35   17   23 ar
  36   17   37 1
  37   18   19 ar
  38   19   38 1
  39   20   39 1
  40   21   40 1
  41   21   41 1
  42   21   42 1
  43   23   24 1

#	End of record

