#	Name: ASD01915359
#	Creating user name:	WinNT
#	Creation time:	15. 06. 2019 20:05

#	Modifying user name:	WinNT
#	Modification time:	15. 06. 2019 20:05

#	Program:	/corina/corina34_cracker 3.40 0067  02.08.2006

@<TRIPOS>MOLECULE
ASD01915359
  52   55    0    0    0
SMALL
NO_CHARGES


@<TRIPOS>ATOM
   1 C1            -0.0227     1.3766    -0.0647 C.ar    
   2 C2            -0.0087    -0.0238     0.0362 C.ar    
   3 C3            -1.2021    -0.7242     0.1394 C.ar    
   4 C4            -2.4042    -0.0508     0.1430 C.ar    
   5 C5            -2.4308     1.3440     0.0432 C.ar    
   6 C6            -1.2376     2.0584    -0.0547 C.ar    
   7 C7            -3.7218     2.0601     0.0476 C.2     
   8 O8            -3.8320     3.1110     0.6490 O.2     
   9 N9            -4.7783     1.5489    -0.6150 N.am    
  10 C10           -6.1038     2.1796    -0.5237 C.3     
  11 C11           -6.6364     2.4009    -1.9435 C.3     
  12 N12           -6.6026     1.1299    -2.6793 N.3     
  13 C13           -5.2266     0.6389    -2.8318 C.3     
  14 C14           -4.6348     0.3490    -1.4534 C.3     
  15 C15           -7.2248     1.2524    -3.9095 C.ar    
  16 C16            1.2075     2.1018    -0.1713 C.1     
  17 C17            2.2160     2.6963    -0.2588 C.1     
  18 C18            3.4462     3.4215    -0.3655 C.ar    
  19 C19            3.4330     4.8150    -0.4659 C.ar    
  20 C20            4.6217     5.5076    -0.5679 C.ar    
  21 C21            5.8255     4.8260    -0.5715 C.ar    
  22 C22            5.8471     3.4445    -0.4723 C.ar    
  23 C23            4.6657     2.7391    -0.3639 C.ar    
  24 N24           -7.2875     0.1986    -4.7103 N.ar    
  25 C25           -7.8750     0.2818    -5.8925 C.ar    
  26 C26           -8.4283     1.4892    -6.2891 C.ar    
  27 C27           -8.3449     2.5713    -5.4270 C.ar    
  28 N28           -7.7483     2.4191    -4.2563 N.ar    
  29 O29            1.1715    -0.6922     0.0322 O.3     
  30 C30            1.1112    -2.1160     0.1381 C.3     
  31 Cl31           7.3633     2.5992    -0.4784 Cl      
  32 H32           -1.1887    -1.8013     0.2169 H       
  33 H33           -3.3294    -0.6022     0.2230 H       
  34 H34           -1.2554     3.1355    -0.1316 H       
  35 H35           -6.7830     1.5268     0.0245 H       
  36 H36           -6.0189     3.1378    -0.0111 H       
  37 H37           -7.6624     2.7656    -1.8943 H       
  38 H38           -6.0134     3.1343    -2.4555 H       
  39 H39           -5.2301    -0.2743    -3.4270 H       
  40 H40           -4.6232     1.3968    -3.3315 H       
  41 H41           -3.5797     0.0946    -1.5540 H       
  42 H42           -5.1717    -0.4795    -0.9914 H       
  43 H43            2.4942     5.3489    -0.4640 H       
  44 H44            4.6125     6.5847    -0.6455 H       
  45 H45            6.7529     5.3735    -0.6523 H       
  46 H46            4.6834     1.6620    -0.2867 H       
  47 H47           -7.9227    -0.5805    -6.5410 H       
  48 H48           -8.9135     1.5848    -7.2493 H       
  49 H49           -8.7655     3.5261    -5.7060 H       
  50 H50            2.1216    -2.5246     0.1229 H       
  51 H51            0.6223    -2.3904     1.0728 H       
  52 H52            0.5436    -2.5189    -0.7007 H       
@<TRIPOS>BOND
   1    1    2 ar
   2    1   16 1
   3    1    6 ar
   4    2    3 ar
   5    2   29 1
   6    3    4 ar
   7    3   32 1
   8    4    5 ar
   9    4   33 1
  10    5    6 ar
  11    5    7 1
  12    6   34 1
  13    7    8 2
  14    7    9 am
  15    9   10 1
  16    9   14 1
  17   10   11 1
  18   10   35 1
  19   10   36 1
  20   11   12 1
  21   11   37 1
  22   11   38 1
  23   12   13 1
  24   12   15 1
  25   13   14 1
  26   13   39 1
  27   13   40 1
  28   14   41 1
  29   14   42 1
  30   15   24 ar
  31   15   28 ar
  32   16   17 3
  33   17   18 1
  34   18   19 ar
  35   18   23 ar
  36   19   20 ar
  37   19   43 1
  38   20   21 ar
  39   20   44 1
  40   21   22 ar
  41   21   45 1
  42   22   23 ar
  43   22   31 1
  44   23   46 1
  45   24   25 ar
  46   25   26 ar
  47   25   47 1
  48   26   27 ar
  49   26   48 1
  50   27   28 ar
  51   27   49 1
  52   29   30 1
  53   30   50 1
  54   30   51 1
  55   30   52 1

#	End of record

