#	Name: ASD05763006
#	Creating user name:	WinNT
#	Creation time:	15. 06. 2019 21:03

#	Modifying user name:	WinNT
#	Modification time:	15. 06. 2019 21:03

#	Program:	/corina/corina34_cracker 3.40 0067  02.08.2006

@<TRIPOS>MOLECULE
ASD05763006
 111  111    0    0    0
SMALL
NO_CHARGES


@<TRIPOS>ATOM
   1 C1            -0.2192     0.0492    -0.6605 C.2     
   2 O2            -0.5114    -1.1255    -0.5865 O.2     
   3 N3             2.0990    -0.6467    -0.4448 N.3     
   4 C4             1.2190     0.4574    -0.8502 C.3     
   5 C5             1.4645     0.7908    -2.3232 C.3     
   6 C6             2.8883     1.3239    -2.4950 C.3     
   7 C7             3.1338     1.6572    -3.9679 C.3     
   8 N8             4.4971     2.1677    -4.1325 N.pl3   
   9 C9             4.9475     2.5355    -5.3778 C.2     
  10 N10            4.1970     2.3442    -6.4242 N.2     
  11 N11            6.1968     3.1084    -5.5191 N.am    
  12 C12           -3.4818     1.6749    -0.9354 C.2     
  13 O13           -3.0030     2.6792    -1.4182 O.2     
  14 N14           -1.1814     0.9894    -0.5787 N.am    
  15 C15           -2.5802     0.5924    -0.4003 C.3     
  16 C16           -2.8646     0.3812     1.0881 C.3     
  17 C17           -2.0397    -0.8003     1.6024 C.3     
  18 C18           -2.3241    -1.0114     3.0908 C.3     
  19 N19           -1.5343    -2.1428     3.5832 N.pl3   
  20 C20           -1.6254    -2.5228     4.9013 C.2     
  21 N21           -2.4145    -1.8765     5.7129 N.2     
  22 N22           -0.8842    -3.5845     5.3634 N.pl3   
  23 C23           -7.0345     2.5053    -0.7079 C.2     
  24 O24           -7.2804     1.5837     0.0412 O.2     
  25 N25           -4.8202     1.5270    -0.8774 N.am    
  26 C26           -5.6966     2.5793    -1.3976 C.3     
  27 C27           -5.8877     2.3860    -2.9033 C.3     
  28 C28           -4.5519     2.5990    -3.6183 C.3     
  29 C29           -6.3912     0.9671    -3.1754 C.3     
  30 C30          -10.2803     4.1225    -1.1692 C.2     
  31 O31           -9.9001     4.7326    -2.1460 O.2     
  32 N32           -7.9577     3.4632    -0.9235 N.am    
  33 C33           -9.2968     3.3338    -0.3435 C.3     
  34 C34           -9.2864     3.8718     1.0888 C.3     
  35 O35           -9.0172     5.2750     1.0686 O.3     
  36 C36          -13.7163     5.3041    -0.7686 C.2     
  37 O37          -13.7536     4.9724     0.3974 O.2     
  38 N38          -11.5823     4.1499    -0.8222 N.am    
  39 C39          -12.5384     4.9166    -1.6249 C.3     
  40 C40          -13.0203     4.0614    -2.7985 C.3     
  41 C41          -11.8633     3.7766    -3.7210 C.ar    
  42 C42          -11.0822     2.6533    -3.5236 C.ar    
  43 C43          -10.0208     2.3921    -4.3699 C.ar    
  44 C44           -9.7408     3.2539    -5.4137 C.ar    
  45 C45          -10.5224     4.3767    -5.6117 C.ar    
  46 C46          -11.5864     4.6357    -4.7681 C.ar    
  47 C47          -17.0808     6.6138    -1.3412 C.2     
  48 O48          -16.9936     6.4693    -2.5377 O.2     
  49 N49          -14.7284     6.0192    -1.2984 N.am    
  50 C50          -15.8735     6.3958    -0.4660 C.3     
  51 C51          -15.5519     7.6866     0.2899 C.3     
  52 O52          -18.2530     6.9685    -0.7917 O.3     
  53 O53            6.5396     3.0737    -3.3277 O.2     
  54 C54            6.9317     3.4002    -4.4277 C.2     
  55 C55            8.2407     4.1322    -4.5744 C.3     
  56 H56            2.0024    -0.8431     0.5402 H       
  57 H57            1.9214    -1.4722    -0.9973 H       
  58 H58            1.4314     1.3345    -0.2390 H       
  59 H59            1.3383    -0.1091    -2.9252 H       
  60 H60            0.7512     1.5482    -2.6481 H       
  61 H61            3.0144     2.2237    -1.8929 H       
  62 H62            3.6016     0.5664    -2.1701 H       
  63 H63            3.0076     0.7574    -4.5700 H       
  64 H64            2.4205     2.4147    -4.2928 H       
  65 H65            5.0818     2.2460    -3.3625 H       
  66 H66            4.4831     2.6692    -7.2922 H       
  67 H67            6.5450     3.3006    -6.4038 H       
  68 H68           -0.9477     1.9290    -0.6379 H       
  69 H69           -2.7663    -0.3356    -0.9410 H       
  70 H70           -2.5943     1.2810     1.6408 H       
  71 H71           -3.9251     0.1729     1.2294 H       
  72 H72           -2.3100    -1.7000     1.0496 H       
  73 H73           -0.9792    -0.5919     1.4611 H       
  74 H74           -2.0539    -0.1117     3.6435 H       
  75 H75           -3.3847    -1.2198     3.2321 H       
  76 H76           -0.9471    -2.6237     2.9793 H       
  77 H77           -2.4787    -2.1446     6.6429 H       
  78 H78           -0.2970    -4.0655     4.7595 H       
  79 H79           -0.9485    -3.8526     6.2934 H       
  80 H80           -5.2031     0.7238    -0.4913 H       
  81 H81           -5.2450     3.5536    -1.2108 H       
  82 H82           -6.6166     3.1073    -3.2726 H       
  83 H83           -3.8230     1.8777    -3.2490 H       
  84 H84           -4.6880     2.4613    -4.6910 H       
  85 H85           -4.1932     3.6099    -3.4245 H       
  86 H86           -5.7051     0.2465    -2.7304 H       
  87 H87           -7.3821     0.8431    -2.7385 H       
  88 H88           -6.4452     0.8008    -4.2513 H       
  89 H89           -7.7356     4.2383    -1.4627 H       
  90 H90           -9.5892     2.2838    -0.3351 H       
  91 H91          -10.2578     3.6948     1.5504 H       
  92 H92           -8.5129     3.3616     1.6629 H       
  93 H93           -8.9955     5.6840     1.9446 H       
  94 H94          -11.8864     3.6619    -0.0410 H       
  95 H95          -12.0543     5.8160    -2.0054 H       
  96 H96          -13.4243     3.1218    -2.4216 H       
  97 H97          -13.7966     4.5978    -3.3442 H       
  98 H98          -11.3010     1.9799    -2.7081 H       
  99 H99           -9.4101     1.5148    -4.2152 H       
 100 H100          -8.9111     3.0502    -6.0745 H       
 101 H101         -10.3034     5.0503    -6.4270 H       
 102 H102         -12.1994     5.5109    -4.9249 H       
 103 H103         -14.6986     6.2844    -2.2310 H       
 104 H104         -16.0815     5.5989     0.2480 H       
 105 H105         -15.3439     8.4836    -0.4240 H       
 106 H106         -16.4039     7.9669     0.9093 H       
 107 H107         -14.6787     7.5289     0.9230 H       
 108 H108         -18.9989     7.0969    -1.3935 H       
 109 H109           8.4247     4.3400    -5.6285 H       
 110 H110           8.1963     5.0705    -4.0214 H       
 111 H111           9.0481     3.5156    -4.1793 H       
@<TRIPOS>BOND
   1    1    2 2
   2    1    4 1
   3    1   14 am
   4    3    4 1
   5    3   56 1
   6    3   57 1
   7    4    5 1
   8    4   58 1
   9    5    6 1
  10    5   59 1
  11    5   60 1
  12    6    7 1
  13    6   61 1
  14    6   62 1
  15    7    8 1
  16    7   63 1
  17    7   64 1
  18    8    9 1
  19    8   65 1
  20    9   10 2
  21    9   11 1
  22   10   66 1
  23   11   54 am
  24   11   67 1
  25   12   13 2
  26   12   15 1
  27   12   25 am
  28   14   15 1
  29   14   68 1
  30   15   16 1
  31   15   69 1
  32   16   17 1
  33   16   70 1
  34   16   71 1
  35   17   18 1
  36   17   72 1
  37   17   73 1
  38   18   19 1
  39   18   74 1
  40   18   75 1
  41   19   20 1
  42   19   76 1
  43   20   21 2
  44   20   22 1
  45   21   77 1
  46   22   78 1
  47   22   79 1
  48   23   24 2
  49   23   26 1
  50   23   32 am
  51   25   26 1
  52   25   80 1
  53   26   27 1
  54   26   81 1
  55   27   28 1
  56   27   29 1
  57   27   82 1
  58   28   83 1
  59   28   84 1
  60   28   85 1
  61   29   86 1
  62   29   87 1
  63   29   88 1
  64   30   31 2
  65   30   33 1
  66   30   38 am
  67   32   33 1
  68   32   89 1
  69   33   34 1
  70   33   90 1
  71   34   35 1
  72   34   91 1
  73   34   92 1
  74   35   93 1
  75   36   37 2
  76   36   39 1
  77   36   49 am
  78   38   39 1
  79   38   94 1
  80   39   40 1
  81   39   95 1
  82   40   41 1
  83   40   96 1
  84   40   97 1
  85   41   42 ar
  86   41   46 ar
  87   42   43 ar
  88   42   98 1
  89   43   44 ar
  90   43   99 1
  91   44   45 ar
  92   44  100 1
  93   45   46 ar
  94   45  101 1
  95   46  102 1
  96   47   48 2
  97   47   50 1
  98   47   52 1
  99   49   50 1
 100   49  103 1
 101   50   51 1
 102   50  104 1
 103   51  105 1
 104   51  106 1
 105   51  107 1
 106   52  108 1
 107   53   54 2
 108   54   55 1
 109   55  109 1
 110   55  110 1
 111   55  111 1

#	End of record

