#	Name: ASD02320046
#	Creating user name:	WinNT
#	Creation time:	15. 06. 2019 20:20

#	Modifying user name:	WinNT
#	Modification time:	15. 06. 2019 20:20

#	Program:	/corina/corina34_cracker 3.40 0067  02.08.2006

@<TRIPOS>MOLECULE
ASD02320046
  95  101    0    0    0
SMALL
NO_CHARGES


@<TRIPOS>ATOM
   1 C1            -0.0468     1.3519    -0.0964 C.ar    
   2 C2            -0.0209    -0.0363    -0.1194 C.ar    
   3 C3             1.1742    -0.7191    -0.1402 C.ar    
   4 C4             2.3779    -0.0085    -0.1380 C.ar    
   5 C5             2.3470     1.4048    -0.1144 C.ar    
   6 C6             1.1261     2.0753    -0.0937 C.ar    
   7 N7             3.5686    -0.6400    -0.1574 N.2     
   8 C8             4.6978     0.0220    -0.1550 C.2     
   9 N9             4.7616     1.3888    -0.1330 N.am    
  10 C10            3.6277     2.1273    -0.1122 C.2     
  11 O11            3.6665     3.3437    -0.0928 O.2     
  12 C12            5.9614    -0.7414    -0.1766 C.ar    
  13 C13            6.9269    -0.5259     0.8099 C.ar    
  14 C14            8.1042    -1.2405     0.7864 C.ar    
  15 C15            8.3325    -2.1744    -0.2169 C.ar    
  16 C16            7.3749    -2.3914    -1.2002 C.ar    
  17 C17            6.1923    -1.6853    -1.1803 C.ar    
  18 N18           13.4952     5.3224    -5.8721 N.pl3   
  19 C19           14.6334     4.8408    -6.4231 C.2     
  20 N20           13.7537     6.4706    -5.3511 N.2     
  21 N21           14.9922     6.7694    -5.5280 N.2     
  22 C22           15.5863     5.7751    -6.1973 C.2     
  23 C23           17.0322     5.7080    -6.6166 C.3     
  24 N24           17.2033     6.4057    -7.8934 N.am    
  25 C25           17.3988     7.7449    -7.9072 C.2     
  26 C26           17.1700     5.6986    -9.0645 C.2     
  27 N27           17.3160     6.2563   -10.2398 N.2     
  28 C28           17.5110     7.5832   -10.3741 C.ar    
  29 C29           17.5644     8.3927    -9.2165 C.ar    
  30 C30           17.6665     8.1759   -11.6307 C.ar    
  31 C31           17.8623     9.5246   -11.7260 C.ar    
  32 C32           17.9103    10.3220   -10.5896 C.ar    
  33 C33           17.7648     9.7666    -9.3370 C.ar    
  34 O34           17.4357     8.3886    -6.8748 O.2     
  35 C35           16.9602     4.2386    -8.9994 C.ar    
  36 C36           15.9125     3.6492    -9.7110 C.ar    
  37 C37           15.7201     2.2866    -9.6476 C.ar    
  38 C38           16.5665     1.4987    -8.8772 C.ar    
  39 C39           17.6098     2.0811    -8.1679 C.ar    
  40 C40           17.8125     3.4421    -8.2306 C.ar    
  41 C41            6.0655     2.0567    -0.1313 C.3     
  42 C42            6.5756     2.1830    -1.5682 C.3     
  43 C43            7.9374     2.8805    -1.5665 C.3     
  44 C44            8.4475     3.0068    -3.0034 C.3     
  45 C45            9.8093     3.7044    -3.0017 C.3     
  46 C46           10.3194     3.8306    -4.4386 C.3     
  47 C47           11.6811     4.5282    -4.4369 C.3     
  48 C48           12.1913     4.6544    -5.8738 C.3     
  49 O49            9.4944    -2.8764    -0.2368 O.3     
  50 S50            9.4411    -4.1838     0.5406 S.o2    
  51 O51           10.7722    -4.6792     0.5843 O.2     
  52 O52            8.6688    -3.9269     1.7054 O.2     
  53 O53            8.6417    -5.1728    -0.2957 O.3     
  54 Na54           9.6351    -5.8989    -1.8597 Du      
  55 O55           16.3733     0.1562    -8.8169 O.3     
  56 S56           17.1242    -0.6259    -9.8850 S.o2    
  57 O57           16.6573    -1.9655    -9.8043 O.2     
  58 O58           17.0562     0.1506   -11.0732 O.2     
  59 O59           18.5896    -0.6560    -9.4747 O.3     
  60 Na60          18.9859    -1.9086    -7.9799 Du      
  61 H61           -0.9948     1.8694    -0.0848 H       
  62 H62           -0.9498    -0.5871    -0.1208 H       
  63 H63            1.1817    -1.7989    -0.1577 H       
  64 H64            1.0989     3.1548    -0.0754 H       
  65 H65            6.7505     0.2003     1.5896 H       
  66 H66            8.8511    -1.0745     1.5487 H       
  67 H67            7.5563    -3.1178    -1.9785 H       
  68 H68            5.4484    -1.8548    -1.9447 H       
  69 H69           14.7567     3.9000    -6.9390 H       
  70 H70           17.6532     6.1829    -5.8570 H       
  71 H71           17.3298     4.6655    -6.7294 H       
  72 H72           17.6322     7.5692   -12.5236 H       
  73 H73           17.9818     9.9775   -12.6991 H       
  74 H74           18.0669    11.3860   -10.6886 H       
  75 H75           17.8025    10.3910    -8.4565 H       
  76 H76           15.2540     4.2609   -10.3098 H       
  77 H77           14.9101     1.8302   -10.1971 H       
  78 H78           18.2655     1.4652    -7.5702 H       
  79 H79           18.6238     3.8940    -7.6792 H       
  80 H80            5.9645     3.0496     0.3070 H       
  81 H81            6.7731     1.4709     0.4553 H       
  82 H82            6.6766     1.1901    -2.0065 H       
  83 H83            5.8680     2.7688    -2.1548 H       
  84 H84            7.8364     3.8734    -1.1282 H       
  85 H85            8.6450     2.2947    -0.9799 H       
  86 H86            8.5485     2.0139    -3.4417 H       
  87 H87            7.7399     3.5926    -3.5900 H       
  88 H88            9.7083     4.6972    -2.5634 H       
  89 H89           10.5169     3.1185    -2.4150 H       
  90 H90           10.4204     2.8377    -4.8768 H       
  91 H91            9.6118     4.4165    -5.0252 H       
  92 H92           11.5802     5.5211    -3.9986 H       
  93 H93           12.3888     3.9423    -3.8502 H       
  94 H94           11.4837     5.2403    -6.4604 H       
  95 H95           12.2923     3.6615    -6.3120 H       
@<TRIPOS>BOND
   1    1    2 ar
   2    1    6 ar
   3    1   61 1
   4    2    3 ar
   5    2   62 1
   6    3    4 ar
   7    3   63 1
   8    4    5 ar
   9    4    7 1
  10    5    6 ar
  11    5   10 1
  12    6   64 1
  13    7    8 2
  14    8    9 1
  15    8   12 1
  16    9   10 am
  17    9   41 1
  18   10   11 2
  19   12   13 ar
  20   12   17 ar
  21   13   14 ar
  22   13   65 1
  23   14   15 ar
  24   14   66 1
  25   15   16 ar
  26   15   49 1
  27   16   17 ar
  28   16   67 1
  29   17   68 1
  30   18   19 1
  31   18   20 1
  32   18   48 1
  33   19   22 2
  34   19   69 1
  35   20   21 2
  36   21   22 1
  37   22   23 1
  38   23   24 1
  39   23   70 1
  40   23   71 1
  41   24   25 am
  42   24   26 1
  43   25   34 2
  44   25   29 1
  45   26   27 2
  46   26   35 1
  47   27   28 1
  48   28   29 ar
  49   28   30 ar
  50   29   33 ar
  51   30   31 ar
  52   30   72 1
  53   31   32 ar
  54   31   73 1
  55   32   33 ar
  56   32   74 1
  57   33   75 1
  58   35   36 ar
  59   35   40 ar
  60   36   37 ar
  61   36   76 1
  62   37   38 ar
  63   37   77 1
  64   38   39 ar
  65   38   55 1
  66   39   40 ar
  67   39   78 1
  68   40   79 1
  69   41   42 1
  70   41   80 1
  71   41   81 1
  72   42   43 1
  73   42   82 1
  74   42   83 1
  75   43   44 1
  76   43   84 1
  77   43   85 1
  78   44   45 1
  79   44   86 1
  80   44   87 1
  81   45   46 1
  82   45   88 1
  83   45   89 1
  84   46   47 1
  85   46   90 1
  86   46   91 1
  87   47   48 1
  88   47   92 1
  89   47   93 1
  90   48   94 1
  91   48   95 1
  92   49   50 1
  93   50   51 2
  94   50   52 2
  95   50   53 1
  96   53   54 1
  97   55   56 1
  98   56   57 2
  99   56   58 2
 100   56   59 1
 101   59   60 1

#	End of record

