#	Name: ASD01320050
#	Creating user name:	WinNT
#	Creation time:	15. 06. 2019 19:15

#	Modifying user name:	WinNT
#	Modification time:	15. 06. 2019 19:15

#	Program:	/corina/corina34_cracker 3.40 0067  02.08.2006

@<TRIPOS>MOLECULE
ASD01320050
  50   53    0    0    0
SMALL
NO_CHARGES


@<TRIPOS>ATOM
   1 N1            -0.0179     1.4664     0.0101 N.am    
   2 C2             0.0021    -0.0041     0.0020 C.3     
   3 C3             1.3598     0.0722    -0.7099 C.3     
   4 C4             1.4523     1.4322    -0.0041 C.3     
   5 C5             2.3664    -0.9421    -0.2312 C.2     
   6 O6             2.0692    -1.7223     0.6422 O.2     
   7 O7             3.5930    -0.9787    -0.7751 O.3     
   8 C8            -0.9662     2.4241     0.0201 C.2     
   9 C9            -0.5690     3.8778     0.0260 C.3     
  10 C10            0.2674     4.1729     1.2726 C.3     
  11 O11           -2.1392     2.1159     0.0243 O.2     
  12 C12            0.7672     5.5935     1.2175 C.ar    
  13 C13            0.0121     6.6137     1.7653 C.ar    
  14 C14            0.4706     7.9168     1.7147 C.ar    
  15 C15            1.6843     8.1997     1.1166 C.ar    
  16 C16            2.4398     7.1795     0.5696 C.ar    
  17 C17            1.9834     5.8758     0.6241 C.ar    
  18 N18           -1.7727     4.7128     0.0366 N.am    
  19 C19           -1.7259     5.9687    -0.4501 C.2     
  20 O20           -0.6842     6.4090    -0.8982 O.2     
  21 N21           -4.1712     6.4226     0.0403 N.pl3   
  22 C22           -2.9342     6.8070    -0.4395 C.2     
  23 C23           -3.0116     8.0830    -0.8997 C.2     
  24 C24           -4.3412     8.5305    -0.7084 C.ar    
  25 C25           -4.9999     9.7358    -0.9849 C.ar    
  26 C26           -6.3234     9.8721    -0.6784 C.ar    
  27 C27           -7.0256     8.8247    -0.0929 C.ar    
  28 C28           -6.3999     7.6311     0.1882 C.ar    
  29 C29           -5.0510     7.4681    -0.1157 C.ar    
  30 Cl30          -7.1365    11.3668    -1.0223 Cl      
  31 H31            0.0583    -0.4429     0.9982 H       
  32 H32           -0.7846    -0.4455    -0.6098 H       
  33 H33            1.2921     0.1360    -1.7959 H       
  34 H34            1.8987     2.2120    -0.6212 H       
  35 H35            1.8949     1.3759     0.9904 H       
  36 H36            4.2041    -1.6467    -0.4354 H       
  37 H37            0.0179     4.0977    -0.8658 H       
  38 H38           -0.3472     4.0383     2.1628 H       
  39 H39            1.1163     3.4903     1.3106 H       
  40 H40           -0.9361     6.3926     2.2326 H       
  41 H41           -0.1196     8.7139     2.1421 H       
  42 H42            2.0422     9.2179     1.0764 H       
  43 H43            3.3879     7.4006     0.1020 H       
  44 H44            2.5753     5.0782     0.1999 H       
  45 H45           -2.6034     4.3618     0.3939 H       
  46 H46           -4.3852     5.5564     0.4209 H       
  47 H47           -2.2038     8.6538    -1.3332 H       
  48 H48           -4.4621    10.5550    -1.4389 H       
  49 H49           -8.0720     8.9487     0.1441 H       
  50 H50           -6.9538     6.8233     0.6431 H       
@<TRIPOS>BOND
   1    1    2 1
   2    1    4 1
   3    1    8 am
   4    2    3 1
   5    2   31 1
   6    2   32 1
   7    3    4 1
   8    3    5 1
   9    3   33 1
  10    4   34 1
  11    4   35 1
  12    5    6 2
  13    5    7 1
  14    7   36 1
  15    8    9 1
  16    8   11 2
  17    9   10 1
  18    9   18 1
  19    9   37 1
  20   10   12 1
  21   10   38 1
  22   10   39 1
  23   12   13 ar
  24   12   17 ar
  25   13   14 ar
  26   13   40 1
  27   14   15 ar
  28   14   41 1
  29   15   16 ar
  30   15   42 1
  31   16   17 ar
  32   16   43 1
  33   17   44 1
  34   18   19 am
  35   18   45 1
  36   19   20 2
  37   19   22 1
  38   21   22 1
  39   21   29 1
  40   21   46 1
  41   22   23 2
  42   23   24 1
  43   23   47 1
  44   24   25 ar
  45   24   29 ar
  46   25   26 ar
  47   25   48 1
  48   26   27 ar
  49   26   30 1
  50   27   28 ar
  51   27   49 1
  52   28   29 ar
  53   28   50 1

#	End of record

