#	Name: ASD01820105
#	Creating user name:	WinNT
#	Creation time:	15. 06. 2019 19:36

#	Modifying user name:	WinNT
#	Modification time:	15. 06. 2019 19:36

#	Program:	/corina/corina34_cracker 3.40 0067  02.08.2006

@<TRIPOS>MOLECULE
ASD01820105
  78   80    0    0    0
SMALL
NO_CHARGES


@<TRIPOS>ATOM
   1 C1            -0.0167     1.3823     0.0096 C.ar    
   2 C2             0.0021    -0.0041     0.0020 C.ar    
   3 C3             1.2026    -0.6883    -0.0131 C.ar    
   4 C4             2.4050     0.0020    -0.0209 C.ar    
   5 C5             1.1769     2.0853     0.0020 C.ar    
   6 C6             1.5296     3.5208     0.0059 C.2     
   7 C7             2.4017     1.3873    -0.0134 C.ar    
   8 C8             3.4569     2.4224    -0.0184 C.2     
   9 N9             2.8701     3.6328    -0.0066 N.am    
  10 O10            0.7411     4.4444     0.0176 O.2     
  11 O11            4.6534     2.2147    -0.0305 O.2     
  12 C12            3.5955     4.9056    -0.0077 C.3     
  13 C13            3.8620     5.3420     1.4344 C.3     
  14 C14            4.6195     6.6713     1.4332 C.3     
  15 N15            4.8754     7.0903     2.8178 N.4     
  16 C16            5.6028     8.3665     2.8167 C.3     
  17 C17            5.8693     8.8029     4.2587 C.3     
  18 C18            6.6268    10.1322     4.2576 C.3     
  19 C19            6.8933    10.5686     5.6996 C.3     
  20 C20            7.6509    11.8979     5.6985 C.3     
  21 C21            7.9174    12.3342     7.1405 C.3     
  22 N22            8.6447    13.6105     7.1394 N.4     
  23 C23            3.5976     7.2555     3.5234 C.3     
  24 C24            5.6817     6.0677     3.4978 C.3     
  25 C25            9.9225    13.4453     6.4337 C.3     
  26 C26            7.8385    14.6330     6.4594 C.3     
  27 C27            8.9006    14.0295     8.5239 C.3     
  28 C28            9.6294    15.3084     8.5228 C.1     
  29 C29           10.2107    16.3284     8.5220 C.1     
  30 C30           10.9396    17.6073     8.5209 C.3     
  31 O31           11.1885    18.0148     9.8677 O.3     
  32 C32           11.8540    19.1788    10.0439 C.2     
  33 C33           12.2276    19.7932    11.3794 C.3     
  34 N34           12.2792    19.9441     9.1137 N.2     
  35 O35           12.9346    21.0986     9.5998 O.3     
  36 C36           13.2817    20.8526    10.9770 C.3     
  37 H37           -0.9580     1.9119     0.0170 H       
  38 H38           -0.9280    -0.5530     0.0083 H       
  39 H39            1.2042    -1.7683    -0.0186 H       
  40 H40            3.3403    -0.5379    -0.0324 H       
  41 H41            4.5436     4.7830    -0.5313 H       
  42 H42            2.9972     5.6643    -0.5122 H       
  43 H43            2.9139     5.4646     1.9580 H       
  44 H44            4.4602     4.5833     1.9389 H       
  45 H45            5.5677     6.5487     0.9096 H       
  46 H46            4.0213     7.4300     0.9287 H       
  47 H47            6.5509     8.2440     2.2931 H       
  48 H48            5.0045     9.1253     2.3121 H       
  49 H49            4.9211     8.9255     4.7823 H       
  50 H50            6.4675     8.0442     4.7633 H       
  51 H51            7.5749    10.0096     3.7340 H       
  52 H52            6.0286    10.8909     3.7530 H       
  53 H53            5.9452    10.6912     6.2232 H       
  54 H54            7.4916     9.8099     6.2041 H       
  55 H55            8.5990    11.7753     5.1749 H       
  56 H56            7.0526    12.6566     5.1939 H       
  57 H57            6.9693    12.4568     7.6641 H       
  58 H58            8.5156    11.5755     7.6450 H       
  59 H59            3.0579     6.3085     3.5243 H       
  60 H60            3.7875     7.5664     4.5508 H       
  61 H61            2.9994     8.0142     3.0189 H       
  62 H62            6.6298     5.9452     2.9741 H       
  63 H63            5.8715     6.3786     4.5251 H       
  64 H64            5.1420     5.1207     3.4986 H       
  65 H65            9.7327    13.1344     5.4064 H       
  66 H66           10.4622    14.3923     6.4329 H       
  67 H67           10.5207    12.6866     6.9383 H       
  68 H68            6.8904    14.7556     6.9830 H       
  69 H69            8.3782    15.5800     6.4586 H       
  70 H70            7.6486    14.3222     5.4321 H       
  71 H71            7.9525    14.1521     9.0475 H       
  72 H72            9.4988    13.2708     9.0285 H       
  73 H73           11.8877    17.4847     7.9973 H       
  74 H74           10.3413    18.3660     8.0163 H       
  75 H75           11.3620    20.2654    11.8441 H       
  76 H76           12.6638    19.0451    12.0413 H       
  77 H77           13.1754    21.7569    11.5762 H       
  78 H78           14.2912    20.4494    11.0568 H       
@<TRIPOS>BOND
   1    1    2 ar
   2    1    5 ar
   3    1   37 1
   4    2    3 ar
   5    2   38 1
   6    3    4 ar
   7    3   39 1
   8    4    7 ar
   9    4   40 1
  10    5    7 ar
  11    5    6 1
  12    6    9 am
  13    6   10 2
  14    7    8 1
  15    8    9 am
  16    8   11 2
  17    9   12 1
  18   12   13 1
  19   12   41 1
  20   12   42 1
  21   13   14 1
  22   13   43 1
  23   13   44 1
  24   14   15 1
  25   14   45 1
  26   14   46 1
  27   15   16 1
  28   15   23 1
  29   15   24 1
  30   16   17 1
  31   16   47 1
  32   16   48 1
  33   17   18 1
  34   17   49 1
  35   17   50 1
  36   18   19 1
  37   18   51 1
  38   18   52 1
  39   19   20 1
  40   19   53 1
  41   19   54 1
  42   20   21 1
  43   20   55 1
  44   20   56 1
  45   21   22 1
  46   21   57 1
  47   21   58 1
  48   22   25 1
  49   22   26 1
  50   22   27 1
  51   23   59 1
  52   23   60 1
  53   23   61 1
  54   24   62 1
  55   24   63 1
  56   24   64 1
  57   25   65 1
  58   25   66 1
  59   25   67 1
  60   26   68 1
  61   26   69 1
  62   26   70 1
  63   27   28 1
  64   27   71 1
  65   27   72 1
  66   28   29 3
  67   29   30 1
  68   30   31 1
  69   30   73 1
  70   30   74 1
  71   31   32 1
  72   32   34 2
  73   32   33 1
  74   33   36 1
  75   33   75 1
  76   33   76 1
  77   34   35 1
  78   35   36 1
  79   36   77 1
  80   36   78 1

#	End of record

