#	Name: ASD04882084
#	Creating user name:	WinNT
#	Creation time:	15. 06. 2019 20:54

#	Modifying user name:	WinNT
#	Modification time:	15. 06. 2019 20:54

#	Program:	/corina/corina34_cracker 3.40 0067  02.08.2006

@<TRIPOS>MOLECULE
ASD04882084
  79   83    0    0    0
SMALL
NO_CHARGES


@<TRIPOS>ATOM
   1 C1             2.1905     1.8441    -0.7951 C.ar    
   2 C2             2.2315     0.4668    -0.7053 C.ar    
   3 C3             1.0527    -0.2535    -0.5578 C.ar    
   4 C4            -0.1635     0.4150    -0.5012 C.ar    
   5 C5            -0.1973     1.7929    -0.5917 C.ar    
   6 C6             0.9778     2.5066    -0.7385 C.ar    
   7 C7            -1.4448    -0.3622    -0.3419 C.3     
   8 N8             1.0904    -1.6468    -0.4671 N.3     
   9 C9             0.6812    -2.0987     0.8700 C.3     
  10 C10            2.4242    -2.1608    -0.8083 C.3     
  11 C11            2.4024    -3.6908    -0.7744 C.3     
  12 N12            1.9931    -4.1427     0.5627 N.3     
  13 C13            0.6594    -3.6287     0.9039 C.3     
  14 C14            2.0308    -5.5318     0.6532 C.ar    
  15 C15            1.2439    -6.3039    -0.1931 C.ar    
  16 C16            2.8644    -6.1479     1.5912 C.ar    
  17 C17            2.9015    -7.5262     1.6808 C.ar    
  18 C18            2.1047    -8.3004     0.8322 C.ar    
  19 C19            1.2780    -7.6784    -0.1070 C.ar    
  20 N20            3.6618    -5.3683     2.4396 N.am    
  21 C21            3.9207    -5.7873     3.6941 C.2     
  22 C22            4.6643    -4.9171     4.6230 C.2     
  23 O23            3.5409    -6.8833     4.0599 O.2     
  24 C24            4.9962    -5.2059     5.9110 C.2     
  25 O25            5.6657    -4.1451     6.3898 O.3     
  26 C26            5.7436    -3.2250     5.4181 C.2     
  27 N27            5.1531    -3.6765     4.3523 N.2     
  28 C28            2.1410    -9.7724     0.9242 C.2     
  29 O29            2.8644   -10.3130     1.7385 O.2     
  30 N30            1.3724   -10.5179     0.1057 N.am    
  31 C31            1.4085   -11.9796     0.1970 C.3     
  32 C32            0.4507   -12.5789    -0.8347 C.3     
  33 C33            0.4884   -14.1055    -0.7393 C.3     
  34 N34           -0.4287   -14.6793    -1.7271 N.am    
  35 C35           -0.0510   -15.0325    -3.1007 C.3     
  36 C36           -1.3826   -15.1722    -3.8712 C.3     
  37 C37           -2.3696   -15.5239    -2.7341 C.3     
  38 C38           -1.7227   -14.9553    -1.4902 C.2     
  39 O39           -2.2909   -14.7688    -0.4351 O.2     
  40 C40            6.4152    -1.8815     5.5405 C.3     
  41 C41            5.4006    -0.8471     6.0321 C.3     
  42 H42            3.1069     2.4049    -0.9052 H       
  43 H43            3.1788    -0.0499    -0.7499 H       
  44 H44           -1.1426     2.3133    -0.5478 H       
  45 H45            0.9486     3.5839    -0.8086 H       
  46 H46           -1.6333    -0.5387     0.7171 H       
  47 H47           -2.2706     0.2075    -0.7679 H       
  48 H48           -1.3571    -1.3174    -0.8594 H       
  49 H49            1.3892    -1.7286     1.6115 H       
  50 H50           -0.3143    -1.7158     1.0945 H       
  51 H51            2.6994    -1.8231    -1.8074 H       
  52 H52            3.1520    -1.7914    -0.0859 H       
  53 H53            1.6943    -4.0609    -1.5159 H       
  54 H54            3.3979    -4.0737    -0.9988 H       
  55 H55            0.3841    -3.9664     1.9031 H       
  56 H56           -0.0685    -3.9981     0.1815 H       
  57 H57            0.6039    -5.8252    -0.9196 H       
  58 H58            3.5450    -8.0043     2.4045 H       
  59 H59            0.6617    -8.2755    -0.7629 H       
  60 H60            4.0275    -4.5271     2.1240 H       
  61 H61            4.7651    -6.1151     6.4460 H       
  62 H62            0.7954   -10.0867    -0.5439 H       
  63 H63            2.4213   -12.3311    -0.0002 H       
  64 H64            1.1050   -12.2888     1.1972 H       
  65 H65           -0.5620   -12.2274    -0.6374 H       
  66 H66            0.7543   -12.2698    -1.8349 H       
  67 H67            1.5012   -14.4570    -0.9365 H       
  68 H68            0.1849   -14.4146     0.2609 H       
  69 H69            0.5577   -14.2419    -3.5396 H       
  70 H70            0.4919   -15.9776    -3.1114 H       
  71 H71           -1.6572   -14.2318    -4.3492 H       
  72 H72           -1.3272   -15.9782    -4.6029 H       
  73 H73           -3.3381   -15.0564    -2.9114 H       
  74 H74           -2.4774   -16.6047    -2.6432 H       
  75 H75            7.2380    -1.9501     6.2522 H       
  76 H76            6.8009    -1.5780     4.5673 H       
  77 H77            4.5779    -0.7785     5.3205 H       
  78 H78            5.0149    -1.1505     7.0054 H       
  79 H79            5.8864     0.1247     6.1207 H       
@<TRIPOS>BOND
   1    1    2 ar
   2    1    6 ar
   3    1   42 1
   4    2    3 ar
   5    2   43 1
   6    3    4 ar
   7    3    8 1
   8    4    5 ar
   9    4    7 1
  10    5    6 ar
  11    5   44 1
  12    6   45 1
  13    7   46 1
  14    7   47 1
  15    7   48 1
  16    8    9 1
  17    8   10 1
  18    9   13 1
  19    9   49 1
  20    9   50 1
  21   10   11 1
  22   10   51 1
  23   10   52 1
  24   11   12 1
  25   11   53 1
  26   11   54 1
  27   12   13 1
  28   12   14 1
  29   13   55 1
  30   13   56 1
  31   14   15 ar
  32   14   16 ar
  33   15   19 ar
  34   15   57 1
  35   16   17 ar
  36   16   20 1
  37   17   18 ar
  38   17   58 1
  39   18   19 ar
  40   18   28 1
  41   19   59 1
  42   20   21 am
  43   20   60 1
  44   21   22 1
  45   21   23 2
  46   22   24 2
  47   22   27 1
  48   24   25 1
  49   24   61 1
  50   25   26 1
  51   26   27 2
  52   26   40 1
  53   28   29 2
  54   28   30 am
  55   30   31 1
  56   30   62 1
  57   31   32 1
  58   31   63 1
  59   31   64 1
  60   32   33 1
  61   32   65 1
  62   32   66 1
  63   33   34 1
  64   33   67 1
  65   33   68 1
  66   34   35 1
  67   34   38 am
  68   35   36 1
  69   35   69 1
  70   35   70 1
  71   36   37 1
  72   36   71 1
  73   36   72 1
  74   37   38 1
  75   37   73 1
  76   37   74 1
  77   38   39 2
  78   40   41 1
  79   40   75 1
  80   40   76 1
  81   41   77 1
  82   41   78 1
  83   41   79 1

#	End of record

