#	Name: ASD08178513
#	Creating user name:	WinNT
#	Creation time:	15. 06. 2019 21:19

#	Modifying user name:	WinNT
#	Modification time:	15. 06. 2019 21:19

#	Program:	/corina/corina34_cracker 3.40 0067  02.08.2006

@<TRIPOS>MOLECULE
ASD08178513
  23   24    0    0    0
SMALL
NO_CHARGES


@<TRIPOS>ATOM
   1 C1            -0.0155     1.2890     0.0091 C.2     
   2 N2             0.0021    -0.0041     0.0020 N.2     
   3 S3             1.6567     1.8533    -0.0038 S.3     
   4 C4             2.1881     0.1703    -0.0179 C.2     
   5 N5             1.1237    -0.5802    -0.0118 N.2     
   6 C6            -1.2455     2.1595     0.0199 C.3     
   7 C7            -3.2025     3.5423     1.5430 C.3     
   8 C8            -3.7336     3.9163     2.9028 C.2     
   9 N9            -3.3984     4.9587     3.5908 N.2     
  10 N10           -3.9412     5.1237     4.7170 N.2     
  11 C11           -4.8036     4.2297     5.1084 C.2     
  12 S12           -4.9291     3.0133     3.8356 S.3     
  13 N13           -5.5014     4.2352     6.3071 N.pl3   
  14 N14            3.5022    -0.2731    -0.0333 N.pl3   
  15 S15           -1.7302     2.5001     1.7345 S.3     
  16 H16           -1.0307     3.0985    -0.4902 H       
  17 H17           -2.0589     1.6455    -0.4923 H       
  18 H18           -3.9669     2.9938     0.9926 H       
  19 H19           -2.9387     4.4467     0.9947 H       
  20 H20           -5.3655     4.9540     6.9441 H       
  21 H21           -6.1252     3.5202     6.5084 H       
  22 H22            4.2303     0.3678    -0.0371 H       
  23 H23            3.6931    -1.2241    -0.0401 H       
@<TRIPOS>BOND
   1    1    2 2
   2    1    3 1
   3    1    6 1
   4    2    5 1
   5    3    4 1
   6    4    5 2
   7    4   14 1
   8    6   15 1
   9    6   16 1
  10    6   17 1
  11    7    8 1
  12    7   15 1
  13    7   18 1
  14    7   19 1
  15    8    9 2
  16    8   12 1
  17    9   10 1
  18   10   11 2
  19   11   12 1
  20   11   13 1
  21   13   20 1
  22   13   21 1
  23   14   22 1
  24   14   23 1

#	End of record

