#	Name: ASD02560070
#	Creating user name:	WinNT
#	Creation time:	15. 06. 2019 20:24

#	Modifying user name:	WinNT
#	Modification time:	15. 06. 2019 20:24

#	Program:	/corina/corina34_cracker 3.40 0067  02.08.2006

@<TRIPOS>MOLECULE
ASD02560070
  54   58    0    0    0
SMALL
NO_CHARGES


@<TRIPOS>ATOM
   1 C1            -0.0214     2.6607     0.0775 C.ar    
   2 C2            -0.3434     1.3349    -0.1463 C.ar    
   3 C3             0.6549     0.3970    -0.3148 C.ar    
   4 C4             1.9923     0.7731    -0.2618 C.ar    
   5 C5             2.3133     2.1132    -0.0201 C.ar    
   6 C6             1.3037     3.0475     0.1407 C.ar    
   7 N7             2.9729    -0.2069    -0.4760 N.pl3   
   8 C8             4.2403    -0.3027     0.0403 C.2     
   9 C9             4.9652     0.6309     0.8187 C.2     
  10 C10            4.4156     1.9795     1.1098 C.3     
  11 O11            3.6030     2.4717     0.0738 O.3     
  12 C12            2.7516    -1.2996    -1.2660 C.2     
  13 C13            3.8265    -2.1194    -1.2025 C.2     
  14 C14            4.7751    -1.5172    -0.3791 C.2     
  15 O15            6.0556     0.3237     1.2566 O.2     
  16 C16            3.6005     1.9094     2.3754 C.ar    
  17 C17            5.5783     2.9497     1.3283 C.3     
  18 C18            6.4418     3.0033     0.0664 C.3     
  19 C19            3.6710     0.7889     3.1817 C.ar    
  20 C20            2.9233     0.7246     4.3426 C.ar    
  21 C21            2.1054     1.7811     4.6974 C.ar    
  22 C22            2.0356     2.9020     3.8915 C.ar    
  23 C23            2.7866     2.9681     2.7329 C.ar    
  24 C24            1.2896     1.7106     5.9625 C.3     
  25 O25            2.0485     2.2448     7.0491 O.3     
  26 C26            1.4534     2.2553     8.2709 C.ar    
  27 C27            2.1328     2.7597     9.3703 C.ar    
  28 C28            1.5258     2.7692    10.6112 C.ar    
  29 C29            0.2422     2.2766    10.7580 C.ar    
  30 C30           -0.4368     1.7729     9.6640 C.ar    
  31 C31            0.1635     1.7668     8.4198 C.ar    
  32 H32           -0.8049     3.3941     0.1985 H       
  33 H33           -1.3792     1.0322    -0.1892 H       
  34 H34            0.3953    -0.6368    -0.4886 H       
  35 H35            1.5533     4.0835     0.3162 H       
  36 H36            1.8602    -1.4805    -1.8483 H       
  37 H37            3.9305    -3.0715    -1.7016 H       
  38 H38            5.7433    -1.9171    -0.1162 H       
  39 H39            5.1864     3.9439     1.5429 H       
  40 H40            6.1832     2.6084     2.1683 H       
  41 H41            7.2701     3.6945     0.2221 H       
  42 H42            6.8336     2.0091    -0.1482 H       
  43 H43            5.8368     3.3446    -0.7736 H       
  44 H44            4.3099    -0.0366     2.9046 H       
  45 H45            2.9778    -0.1512     4.9723 H       
  46 H46            1.3964     3.7273     4.1686 H       
  47 H47            2.7321     3.8439     2.1032 H       
  48 H48            0.3753     2.2908     5.8380 H       
  49 H49            1.0349     0.6719     6.1732 H       
  50 H50            3.1355     3.1443     9.2562 H       
  51 H51            2.0544     3.1615    11.4674 H       
  52 H52           -0.2306     2.2849    11.7289 H       
  53 H53           -1.4391     1.3880     9.7813 H       
  54 H54           -0.3673     1.3733     7.5655 H       
@<TRIPOS>BOND
   1    1    2 ar
   2    1    6 ar
   3    1   32 1
   4    2    3 ar
   5    2   33 1
   6    3    4 ar
   7    3   34 1
   8    4    5 ar
   9    4    7 1
  10    5    6 ar
  11    5   11 1
  12    6   35 1
  13    7    8 1
  14    7   12 1
  15    8    9 1
  16    8   14 2
  17    9   10 1
  18    9   15 2
  19   10   11 1
  20   10   16 1
  21   10   17 1
  22   12   13 2
  23   12   36 1
  24   13   14 1
  25   13   37 1
  26   14   38 1
  27   16   19 ar
  28   16   23 ar
  29   17   18 1
  30   17   39 1
  31   17   40 1
  32   18   41 1
  33   18   42 1
  34   18   43 1
  35   19   20 ar
  36   19   44 1
  37   20   21 ar
  38   20   45 1
  39   21   22 ar
  40   21   24 1
  41   22   23 ar
  42   22   46 1
  43   23   47 1
  44   24   25 1
  45   24   48 1
  46   24   49 1
  47   25   26 1
  48   26   27 ar
  49   26   31 ar
  50   27   28 ar
  51   27   50 1
  52   28   29 ar
  53   28   51 1
  54   29   30 ar
  55   29   52 1
  56   30   31 ar
  57   30   53 1
  58   31   54 1

#	End of record

