#	Name: ASD02039192
#	Creating user name:	WinNT
#	Creation time:	15. 06. 2019 20:17

#	Modifying user name:	WinNT
#	Modification time:	15. 06. 2019 20:17

#	Program:	/corina/corina34_cracker 3.40 0067  02.08.2006

@<TRIPOS>MOLECULE
ASD02039192
  39   42    0    0    0
SMALL
NO_CHARGES


@<TRIPOS>ATOM
   1 N1             0.0020     1.2625     0.3693 N.2     
   2 C2             0.0063    -0.0135     0.0889 C.2     
   3 N3             1.2922    -0.3754    -0.1076 N.2     
   4 C4             1.9960     0.7160     0.0677 C.2     
   5 O5             1.1351     1.6954     0.3611 O.3     
   6 C6             3.4937     0.8428    -0.0404 C.3     
   7 N7             3.8571     1.1785    -1.4194 N.pl3   
   8 N8            -1.1049    -0.8433     0.0085 N.pl3   
   9 C9            -2.3915    -0.3043     0.1293 C.ar    
  10 C10           -2.6368     1.0037    -0.2682 C.ar    
  11 C11           -3.9068     1.5346    -0.1490 C.ar    
  12 C12           -4.9370     0.7605     0.3679 C.ar    
  13 C13           -4.6919    -0.5450     0.7651 C.ar    
  14 C14           -3.4238    -1.0788     0.6411 C.ar    
  15 O15           -6.1872     1.2834     0.4852 O.3     
  16 Cl16          -4.2143     3.1695    -0.6450 Cl      
  17 C17           -7.1990     0.4308     1.0251 C.3     
  18 F18           -7.3388    -0.6994     0.2125 F       
  19 F19           -6.8346     0.0345     2.3163 F       
  20 C20            5.1843     1.3466    -1.7624 C.ar    
  21 C21            5.5529     1.6695    -3.0829 C.ar    
  22 N22            6.1440     1.2132    -0.8537 N.ar    
  23 C23            7.4163     1.3728    -1.1736 C.ar    
  24 N24            7.8093     1.6698    -2.3926 N.ar    
  25 C25            6.9217     1.8290    -3.3733 C.ar    
  26 N26            7.0049     2.1295    -4.7002 N.pl3   
  27 N27            5.7068     2.1602    -5.2252 N.2     
  28 C28            4.8466     1.8917    -4.2847 C.2     
  29 H29            3.8410     1.6300     0.6287 H       
  30 H30            3.9595    -0.1025     0.2382 H       
  31 H31            3.1655     1.2827    -2.0915 H       
  32 H32           -0.9895    -1.7962    -0.1314 H       
  33 H33           -1.8352     1.6057    -0.6699 H       
  34 H34           -5.4936    -1.1462     1.1678 H       
  35 H35           -3.2334    -2.0958     0.9507 H       
  36 H36           -8.1456     0.9698     1.0639 H       
  37 H37            8.1633     1.2548    -0.4025 H       
  38 H38            7.8225     2.2940    -5.1956 H       
  39 H39            3.7742     1.8467    -4.4042 H       
@<TRIPOS>BOND
   1    1    2 2
   2    1    5 1
   3    2    3 1
   4    2    8 1
   5    3    4 2
   6    4    5 1
   7    4    6 1
   8    6    7 1
   9    6   29 1
  10    6   30 1
  11    7   20 1
  12    7   31 1
  13    8    9 1
  14    8   32 1
  15    9   10 ar
  16    9   14 ar
  17   10   11 ar
  18   10   33 1
  19   11   12 ar
  20   11   16 1
  21   12   13 ar
  22   12   15 1
  23   13   14 ar
  24   13   34 1
  25   14   35 1
  26   15   17 1
  27   17   18 1
  28   17   19 1
  29   17   36 1
  30   20   21 ar
  31   20   22 ar
  32   21   25 ar
  33   21   28 1
  34   22   23 ar
  35   23   24 ar
  36   23   37 1
  37   24   25 ar
  38   25   26 1
  39   26   27 1
  40   26   38 1
  41   27   28 2
  42   28   39 1

#	End of record

