#	Name: ASD03330160
#	Creating user name:	WinNT
#	Creation time:	15. 06. 2019 20:36

#	Modifying user name:	WinNT
#	Modification time:	15. 06. 2019 20:36

#	Program:	/corina/corina34_cracker 3.40 0067  02.08.2006

@<TRIPOS>MOLECULE
ASD03330160
  83   86    0    0    0
SMALL
NO_CHARGES


@<TRIPOS>ATOM
   1 N1            -0.8880     4.2057    -1.0312 N.3     
   2 C2            -0.4437     3.0751    -1.8562 C.3     
   3 C3            -0.1508     3.5626    -3.2769 C.3     
   4 C4             0.9356     4.6406    -3.2276 C.3     
   5 C5             0.4678     5.7844    -2.3234 C.3     
   6 C6             0.1570     5.2325    -0.9303 C.3     
   7 N7            -3.1680     3.4696     2.4147 N.am    
   8 C8            -2.1168     4.4875     2.5474 C.3     
   9 C9            -1.7101     4.9615     1.1485 C.3     
  10 C10           -1.3103     3.7518     0.3006 C.3     
  11 C11           -2.5059     2.8066     0.1616 C.3     
  12 C12           -2.9216     2.3082     1.5493 C.3     
  13 C13           -0.1712     3.0252     0.9679 C.2     
  14 O14           -0.1903     1.8156     1.0529 O.2     
  15 N15            0.8689     3.7197     1.4704 N.am    
  16 F16            2.1158     4.0919    -2.7146 F       
  17 F17            1.1680     5.1295    -4.5176 F       
  18 C18           -4.3341     3.5962     3.0787 C.2     
  19 O19           -4.4967     4.5220     3.8519 O.2     
  20 C20           -5.4058     2.6193     2.8697 C.2     
  21 C21           -6.7263     2.9257     2.7297 C.2     
  22 C22           -7.5536     1.8381     2.5420 C.2     
  23 C23           -6.9012     0.6262     2.5284 C.2     
  24 S24           -5.1766     0.8804     2.7553 S.3     
  25 C25           -9.0208     1.9637     2.3703 C.ar    
  26 C26           -9.7777     2.6572     3.3137 C.ar    
  27 C27          -11.1424     2.7727     3.1508 C.ar    
  28 C28          -11.7624     2.1993     2.0491 C.ar    
  29 C29          -11.0118     1.5077     1.1082 C.ar    
  30 C30           -9.6459     1.3935     1.2621 C.ar    
  31 O31          -13.1074     2.3149     1.8915 O.3     
  32 C32          -13.6802     1.7009     0.7353 C.3     
  33 C33          -15.1922     1.9352     0.7296 C.3     
  34 C34          -15.8055     1.2778    -0.5084 C.3     
  35 S35          -17.5981     1.5556    -0.5151 S.o2    
  36 O36          -18.1664     0.8720     0.5935 O.2     
  37 O37          -17.8400     2.9473    -0.6702 O.2     
  38 C38          -18.1030     0.7081    -2.0374 C.3     
  39 C39           -7.5500    -0.6862     2.3453 C.ar    
  40 C40           -7.0210    -1.6106     1.4391 C.ar    
  41 C41           -7.6327    -2.8362     1.2728 C.ar    
  42 C42           -8.7687    -3.1511     2.0017 C.ar    
  43 C43           -9.2972    -2.2385     2.9013 C.ar    
  44 C44           -8.6918    -1.0127     3.0807 C.ar    
  45 F45           -9.3638    -4.3524     1.8344 F       
  46 Cl46          -5.5985    -1.2170     0.5252 Cl      
  47 H47            0.4608     2.6451    -1.4260 H       
  48 H48           -1.2269     2.3176    -1.8864 H       
  49 H49            0.1940     2.7262    -3.8849 H       
  50 H50           -1.0584     3.9803    -3.7127 H       
  51 H51            1.2545     6.5353    -2.2502 H       
  52 H52           -0.4300     6.2370    -2.7442 H       
  53 H53           -0.1900     6.0419    -0.2881 H       
  54 H54            1.0587     4.7923    -0.5045 H       
  55 H55           -2.4960     5.3316     3.1233 H       
  56 H56           -1.2525     4.0565     3.0527 H       
  57 H57           -2.5503     5.4731     0.6792 H       
  58 H58           -0.8652     5.6455     1.2276 H       
  59 H59           -3.3387     3.3385    -0.2984 H       
  60 H60           -2.2274     1.9569    -0.4617 H       
  61 H61           -2.1230     1.6994     1.9733 H       
  62 H62           -3.8319     1.7144     1.4667 H       
  63 H63            0.8518     4.6896     1.4662 H       
  64 H64            1.6345     3.2497     1.8363 H       
  65 H65           -7.0958     3.9399     2.7633 H       
  66 H66           -9.2960     3.1033     4.1713 H       
  67 H67          -11.7294     3.3094     3.8814 H       
  68 H68          -11.4972     1.0625     0.2524 H       
  69 H69           -9.0619     0.8592     0.5274 H       
  70 H70          -13.2417     2.1366    -0.1625 H       
  71 H71          -13.4786     0.6298     0.7551 H       
  72 H72          -15.6308     1.4995     1.6273 H       
  73 H73          -15.3938     3.0062     0.7098 H       
  74 H74          -15.3669     1.7135    -1.4061 H       
  75 H75          -15.6039     0.2068    -0.4886 H       
  76 H76          -17.8338    -0.3462    -1.9726 H       
  77 H77          -19.1816     0.8005    -2.1641 H       
  78 H78          -17.5968     1.1606    -2.8901 H       
  79 H79           -7.2258    -3.5512     0.5731 H       
  80 H80          -10.1828    -2.4898     3.4660 H       
  81 H81           -9.1021    -0.3047     3.7856 H       
  82 Cl82           7.1158    11.5353     9.1713 Cl      
  83 H83            7.1158    12.9053     9.1713 H       
@<TRIPOS>BOND
   1    1    2 1
   2    1    6 1
   3    1   10 1
   4    2    3 1
   5    2   47 1
   6    2   48 1
   7    3    4 1
   8    3   49 1
   9    3   50 1
  10    4    5 1
  11    4   16 1
  12    4   17 1
  13    5    6 1
  14    5   51 1
  15    5   52 1
  16    6   53 1
  17    6   54 1
  18    7    8 1
  19    7   12 1
  20    7   18 am
  21    8    9 1
  22    8   55 1
  23    8   56 1
  24    9   10 1
  25    9   57 1
  26    9   58 1
  27   10   11 1
  28   10   13 1
  29   11   12 1
  30   11   59 1
  31   11   60 1
  32   12   61 1
  33   12   62 1
  34   13   14 2
  35   13   15 am
  36   15   63 1
  37   15   64 1
  38   18   19 2
  39   18   20 1
  40   20   21 2
  41   20   24 1
  42   21   22 1
  43   21   65 1
  44   22   23 2
  45   22   25 1
  46   23   24 1
  47   23   39 1
  48   25   26 ar
  49   25   30 ar
  50   26   27 ar
  51   26   66 1
  52   27   28 ar
  53   27   67 1
  54   28   29 ar
  55   28   31 1
  56   29   30 ar
  57   29   68 1
  58   30   69 1
  59   31   32 1
  60   32   33 1
  61   32   70 1
  62   32   71 1
  63   33   34 1
  64   33   72 1
  65   33   73 1
  66   34   35 1
  67   34   74 1
  68   34   75 1
  69   35   36 2
  70   35   37 2
  71   35   38 1
  72   38   76 1
  73   38   77 1
  74   38   78 1
  75   39   40 ar
  76   39   44 ar
  77   40   41 ar
  78   40   46 1
  79   41   42 ar
  80   41   79 1
  81   42   43 ar
  82   42   45 1
  83   43   44 ar
  84   43   80 1
  85   44   81 1
  86   82   83 1

#	End of record

