#	Name: ASD04910356
#	Creating user name:	WinNT
#	Creation time:	15. 06. 2019 20:55

#	Modifying user name:	WinNT
#	Modification time:	15. 06. 2019 20:55

#	Program:	/corina/corina34_cracker 3.40 0067  02.08.2006

@<TRIPOS>MOLECULE
ASD04910356
  82   84    0    0    0
SMALL
NO_CHARGES


@<TRIPOS>ATOM
   1 C1             0.2185    -4.0233     2.7888 C.2     
   2 C2             0.5299    -3.0999     1.6393 C.3     
   3 C3            -0.5989    -3.1698     0.6088 C.3     
   4 O4            -0.8016    -4.6708     2.7843 O.2     
   5 O5             1.0770    -4.1306     3.8151 O.3     
   6 C6             0.2397    -2.7650    -1.6429 C.2     
   7 C7             0.5090    -4.2137    -1.7646 C.ar    
   8 C8             0.5498    -4.8157    -3.0231 C.ar    
   9 C9             0.8021    -6.1678    -3.1297 C.ar    
  10 C10            1.0139    -6.9269    -1.9925 C.ar    
  11 C11            0.9748    -6.3363    -0.7419 C.ar    
  12 C12            0.7292    -4.9840    -0.6217 C.ar    
  13 O13            0.5015    -2.0186    -2.5658 O.2     
  14 N14           -0.2962    -2.2721    -0.5087 N.am    
  15 C15            1.2879    -8.4036    -2.1165 C.3     
  16 C16            2.7919    -8.6554    -1.9915 C.3     
  17 C17            3.2577    -8.2740    -0.5849 C.3     
  18 O18            0.5997    -9.1045    -1.0786 O.3     
  19 C19            0.1339   -10.3464    -1.3765 C.ar    
  20 C20            0.2801   -10.8524    -2.6601 C.ar    
  21 C21           -0.1924   -12.1139    -2.9630 C.ar    
  22 C22           -0.8139   -12.8760    -1.9830 C.ar    
  23 C23           -0.9599   -12.3691    -0.6987 C.ar    
  24 C24           -0.4824   -11.1097    -0.3954 C.ar    
  25 N25           -1.2946   -14.1576    -2.2904 N.pl3   
  26 N26           -1.2154   -14.7906    -3.5376 N.2     
  27 C27           -1.7704   -15.9715    -3.4331 C.2     
  28 C28           -2.2206   -16.1289    -2.1180 C.2     
  29 C29           -1.9112   -15.0027    -1.4340 C.2     
  30 C30           -2.9207   -17.3410    -1.5597 C.3     
  31 F31           -3.0577   -18.3046    -2.5647 F       
  32 F32           -2.1680   -17.8702    -0.5059 F       
  33 F33           -4.1864   -16.9736    -1.0903 F       
  34 C34            3.0834   -10.1365    -2.2412 C.3     
  35 C35           -0.5759    -0.8387    -0.3933 C.3     
  36 C36            0.1959    -0.2626     0.7955 C.3     
  37 C37           -0.1397    -0.1291    -1.6768 C.3     
  38 C38           -2.0759    -0.6275    -0.1783 C.3     
  39 C39            0.7122    -5.0389     4.8875 C.3     
  40 C40            0.5618    -6.4548     4.3276 C.3     
  41 C41            1.8042    -5.0275     5.9591 C.3     
  42 C42           -0.6139    -4.5915     5.5059 C.3     
  43 H43            0.6221    -2.0785     2.0084 H       
  44 H44            1.4670    -3.4037     1.1728 H       
  45 H45           -0.6911    -4.1912     0.2396 H       
  46 H46           -1.5360    -2.8660     1.0753 H       
  47 H47            0.3839    -4.2244    -3.9116 H       
  48 H48            0.8340    -6.6349    -4.1029 H       
  49 H49            1.1410    -6.9344     0.1419 H       
  50 H50            0.7034    -4.5234     0.3548 H       
  51 H51            0.9396    -8.7575    -3.0868 H       
  52 H52            3.3237    -8.0515    -2.7267 H       
  53 H53            2.7259    -8.8780     0.1502 H       
  54 H54            4.3292    -8.4534    -0.4959 H       
  55 H55            3.0500    -7.2189    -0.4071 H       
  56 H56            0.7632   -10.2594    -3.4225 H       
  57 H57           -0.0789   -12.5076    -3.9623 H       
  58 H58           -1.4433   -12.9616     0.0640 H       
  59 H59           -0.5919   -10.7171     0.6047 H       
  60 H60           -1.8648   -16.6989    -4.2258 H       
  61 H61           -2.1216   -14.8122    -0.3920 H       
  62 H62            2.5516   -10.7405    -1.5060 H       
  63 H63            2.7515   -10.4082    -3.2432 H       
  64 H64            4.1549   -10.3159    -2.1522 H       
  65 H65            1.2645    -0.4130     0.6423 H       
  66 H66           -0.0122     0.8039     0.8813 H       
  67 H67           -0.1148    -0.7681     1.7098 H       
  68 H68           -0.6871    -0.5420    -2.5242 H       
  69 H69           -0.3510     0.9369    -1.5923 H       
  70 H70            0.9296    -0.2767    -1.8281 H       
  71 H71           -2.3866    -1.1331     0.7360 H       
  72 H72           -2.2840     0.4390    -0.0925 H       
  73 H73           -2.6257    -1.0380    -1.0252 H       
  74 H74            1.5065    -6.7736     3.8871 H       
  75 H75            0.2879    -7.1367     5.1327 H       
  76 H76           -0.2162    -6.4629     3.5642 H       
  77 H77            1.9113    -4.0188     6.3580 H       
  78 H78            1.5303    -5.7094     6.7642 H       
  79 H79            2.7489    -5.3463     5.5186 H       
  80 H80           -1.3918    -4.5996     4.7425 H       
  81 H81           -0.8877    -5.2734     6.3110 H       
  82 H82           -0.5067    -3.5828     5.9048 H       
@<TRIPOS>BOND
   1    1    2 1
   2    1    4 2
   3    1    5 1
   4    2    3 1
   5    2   43 1
   6    2   44 1
   7    3   14 1
   8    3   45 1
   9    3   46 1
  10    5   39 1
  11    6    7 1
  12    6   13 2
  13    6   14 am
  14    7    8 ar
  15    7   12 ar
  16    8    9 ar
  17    8   47 1
  18    9   10 ar
  19    9   48 1
  20   10   11 ar
  21   10   15 1
  22   11   12 ar
  23   11   49 1
  24   12   50 1
  25   14   35 1
  26   15   16 1
  27   15   18 1
  28   15   51 1
  29   16   17 1
  30   16   34 1
  31   16   52 1
  32   17   53 1
  33   17   54 1
  34   17   55 1
  35   18   19 1
  36   19   20 ar
  37   19   24 ar
  38   20   21 ar
  39   20   56 1
  40   21   22 ar
  41   21   57 1
  42   22   23 ar
  43   22   25 1
  44   23   24 ar
  45   23   58 1
  46   24   59 1
  47   25   26 1
  48   25   29 1
  49   26   27 2
  50   27   28 1
  51   27   60 1
  52   28   29 2
  53   28   30 1
  54   29   61 1
  55   30   31 1
  56   30   32 1
  57   30   33 1
  58   34   62 1
  59   34   63 1
  60   34   64 1
  61   35   36 1
  62   35   38 1
  63   35   37 1
  64   36   65 1
  65   36   66 1
  66   36   67 1
  67   37   68 1
  68   37   69 1
  69   37   70 1
  70   38   71 1
  71   38   72 1
  72   38   73 1
  73   39   40 1
  74   39   42 1
  75   39   41 1
  76   40   74 1
  77   40   75 1
  78   40   76 1
  79   41   77 1
  80   41   78 1
  81   41   79 1
  82   42   80 1
  83   42   81 1
  84   42   82 1

#	End of record

