#	Name: ASD01140128
#	Creating user name:	WinNT
#	Creation time:	15. 06. 2019 19:00

#	Modifying user name:	WinNT
#	Modification time:	15. 06. 2019 19:00

#	Program:	/corina/corina34_cracker 3.40 0067  02.08.2006

@<TRIPOS>MOLECULE
ASD01140128
  41   42    0    0    0
SMALL
NO_CHARGES


@<TRIPOS>ATOM
   1 C1            -0.0167     1.3838     0.0097 C.ar    
   2 C2             0.0021    -0.0041     0.0020 C.ar    
   3 C3            -1.1821    -0.7113     0.0100 C.ar    
   4 C4            -2.3984    -0.0309     0.0257 C.ar    
   5 C5            -2.4140     1.3631     0.0333 C.ar    
   6 C6            -1.2267     2.0644     0.0307 C.ar    
   7 C7             1.3176    -0.7389    -0.0155 C.3     
   8 O8             1.1515     2.0778     0.0022 O.3     
   9 C9             1.0591     3.5038     0.0108 C.3     
  10 C10            1.8311    -0.8834     1.3939 C.2     
  11 C11            2.1278    -2.0693     1.8647 C.2     
  12 C12           -3.6736    -0.7884     0.0338 C.ar    
  13 C13           -4.6612    -0.4854     0.9677 C.ar    
  14 C14           -5.8464    -1.1934     0.9712 C.ar    
  15 C15           -6.0571    -2.2036     0.0499 C.ar    
  16 C16           -5.0832    -2.5128    -0.8812 C.ar    
  17 C17           -3.8918    -1.8063    -0.8999 C.ar    
  18 O18           -2.9339    -2.1092    -1.8145 O.3     
  19 C19           -6.9142    -0.8649     1.9826 C.3     
  20 C20           -7.8350     0.1858     1.4177 C.2     
  21 C21           -9.1255    -0.0336     1.3659 C.2     
  22 H22           -1.1668    -1.7912     0.0037 H       
  23 H23           -3.3549     1.8931     0.0452 H       
  24 H24           -1.2381     3.1444     0.0369 H       
  25 H25            1.1761    -1.7269    -0.4537 H       
  26 H26            2.0393    -0.1780    -0.6094 H       
  27 H27            0.5144     3.8379    -0.8723 H       
  28 H28            0.5314     3.8283     0.9076 H       
  29 H29            2.0611     3.9329     0.0035 H       
  30 H30            1.9546    -0.0091     2.0159 H       
  31 H31            2.4958    -2.1728     2.8747 H       
  32 H32            2.0044    -2.9436     1.2427 H       
  33 H33           -4.5000     0.3024     1.6887 H       
  34 H34           -6.9866    -2.7534     0.0583 H       
  35 H35           -5.2533    -3.3027    -1.5977 H       
  36 H36           -3.0103    -1.6154    -2.6424 H       
  37 H37           -7.4862    -1.7640     2.2121 H       
  38 H38           -6.4485    -0.4883     2.8933 H       
  39 H39           -7.4311     1.1196     1.0555 H       
  40 H40           -9.5295    -0.9674     1.7281 H       
  41 H41           -9.7854     0.7194     0.9611 H       
@<TRIPOS>BOND
   1    1    2 ar
   2    1    8 1
   3    1    6 ar
   4    2    3 ar
   5    2    7 1
   6    3    4 ar
   7    3   22 1
   8    4    5 ar
   9    4   12 1
  10    5    6 ar
  11    5   23 1
  12    6   24 1
  13    7   10 1
  14    7   25 1
  15    7   26 1
  16    8    9 1
  17    9   27 1
  18    9   28 1
  19    9   29 1
  20   10   11 2
  21   10   30 1
  22   11   31 1
  23   11   32 1
  24   12   13 ar
  25   12   17 ar
  26   13   14 ar
  27   13   33 1
  28   14   15 ar
  29   14   19 1
  30   15   16 ar
  31   15   34 1
  32   16   17 ar
  33   16   35 1
  34   17   18 1
  35   18   36 1
  36   19   20 1
  37   19   37 1
  38   19   38 1
  39   20   21 2
  40   20   39 1
  41   21   40 1
  42   21   41 1

#	End of record

