#	Name: ASD03320216
#	Creating user name:	WinNT
#	Creation time:	15. 06. 2019 20:36

#	Modifying user name:	WinNT
#	Modification time:	15. 06. 2019 20:36

#	Program:	/corina/corina34_cracker 3.40 0067  02.08.2006

@<TRIPOS>MOLECULE
ASD03320216
  37   39    0    0    0
SMALL
NO_CHARGES


@<TRIPOS>ATOM
   1 C1            -0.0533     1.4216     0.2138 C.ar    
   2 C2            -0.0621     0.0450     0.4280 C.ar    
   3 C3            -1.2719    -0.6341     0.4249 C.ar    
   4 C4            -2.4340     0.0848     0.2078 C.ar    
   5 C5            -2.3550     1.4637    -0.0003 C.ar    
   6 N6            -1.1859     2.0827     0.0140 N.ar    
   7 C7             1.2335     2.1555     0.2153 C.2     
   8 O8             2.2744     1.5567     0.4027 O.2     
   9 N9             1.2500     3.4873     0.0089 N.am    
  10 C10            2.4535     4.1960     0.1069 C.ar    
  11 C11           -3.5956     2.2431    -0.2339 C.ar    
  12 C12            3.6405     3.6110    -0.3140 C.ar    
  13 C13            4.8269     4.3108    -0.2174 C.ar    
  14 C14            4.8333     5.5980     0.2998 C.ar    
  15 C15            3.6479     6.1830     0.7208 C.ar    
  16 C16            2.4599     5.4866     0.6196 C.ar    
  17 O17            6.0019     6.2865     0.3945 O.3     
  18 C18            5.9348     7.6070     0.9366 C.3     
  19 F19            5.4247     7.5515     2.2380 F       
  20 F20            7.2168     8.1665     0.9617 F       
  21 F21            5.0973     8.3958     0.1406 F       
  22 C22           -3.5472     3.6234    -0.4451 C.ar    
  23 N23           -4.6764     4.2794    -0.6498 N.ar    
  24 C24           -5.8347     3.6497    -0.6564 C.ar    
  25 N25           -5.9248     2.3490    -0.4610 N.ar    
  26 C26           -4.8441     1.6162    -0.2546 C.ar    
  27 H27            0.8626    -0.4877     0.5942 H       
  28 H28           -1.3058    -1.7011     0.5880 H       
  29 H29           -3.3914    -0.4148     0.1991 H       
  30 H30            0.4281     3.9547    -0.2076 H       
  31 H31            3.6358     2.6087    -0.7163 H       
  32 H32            5.7503     3.8558    -0.5443 H       
  33 H33            3.6537     7.1850     1.1237 H       
  34 H34            1.5371     5.9423     0.9471 H       
  35 H35           -2.6022     4.1462    -0.4407 H       
  36 H36           -6.7377     4.2170    -0.8268 H       
  37 H37           -4.9258     0.5511    -0.0957 H       
@<TRIPOS>BOND
   1    1    2 ar
   2    1    7 1
   3    1    6 ar
   4    2    3 ar
   5    2   27 1
   6    3    4 ar
   7    3   28 1
   8    4    5 ar
   9    4   29 1
  10    5    6 ar
  11    5   11 1
  12    7    8 2
  13    7    9 am
  14    9   10 1
  15    9   30 1
  16   10   12 ar
  17   10   16 ar
  18   11   22 ar
  19   11   26 ar
  20   12   13 ar
  21   12   31 1
  22   13   14 ar
  23   13   32 1
  24   14   15 ar
  25   14   17 1
  26   15   16 ar
  27   15   33 1
  28   16   34 1
  29   17   18 1
  30   18   19 1
  31   18   20 1
  32   18   21 1
  33   22   23 ar
  34   22   35 1
  35   23   24 ar
  36   24   25 ar
  37   24   36 1
  38   25   26 ar
  39   26   37 1

#	End of record

