#	Name: ASD07020010
#	Creating user name:	WinNT
#	Creation time:	15. 06. 2019 21:08

#	Modifying user name:	WinNT
#	Modification time:	15. 06. 2019 21:08

#	Program:	/corina/corina34_cracker 3.40 0067  02.08.2006

@<TRIPOS>MOLECULE
ASD07020010
  40   41    0    0    0
SMALL
NO_CHARGES


@<TRIPOS>ATOM
   1 C1            -0.0184     1.5028     0.0103 C.3     
   2 C2             0.0021    -0.0041     0.0020 C.ar    
   3 C3             0.0231    -0.7202     1.1913 C.ar    
   4 C4             0.0415    -2.1001     1.1495 C.ar    
   5 N5             0.0398    -2.7423    -0.0031 N.ar    
   6 C6             0.0201    -2.0953    -1.1584 C.ar    
   7 C7            -0.0054    -0.7049    -1.1907 C.ar    
   8 N8             0.0191    -2.8121    -2.3494 N.pl3   
   9 C9            -0.0027    -2.1030    -3.6311 C.3     
  10 C10            0.6096    -2.9919    -4.7161 C.3     
  11 C11            0.6168    -2.2341    -6.0475 C.3     
  12 N12           -0.7493    -1.7791    -6.3400 N.am    
  13 C13           -1.4645    -0.9931    -5.3255 C.3     
  14 C14           -1.4484    -1.7647    -4.0022 C.3     
  15 C15           -1.3350    -2.0768    -7.5168 C.2     
  16 O16           -0.7327    -2.7273    -8.3478 O.2     
  17 O17           -2.5874    -1.6533    -7.7715 O.3     
  18 C18           -3.1550    -2.0108    -9.0593 C.3     
  19 C19           -4.5730    -1.4463    -9.1661 C.3     
  20 H20            1.0042     1.8801     0.0026 H       
  21 H21           -0.5455     1.8639    -0.8728 H       
  22 H22           -0.5286     1.8543     0.9071 H       
  23 H23            0.0254    -0.2031     2.1394 H       
  24 H24            0.0579    -2.6611     2.0722 H       
  25 H25           -0.0261    -0.1796    -2.1341 H       
  26 H26            0.0328    -3.7819    -2.3318 H       
  27 H27            0.5752    -1.1826    -3.5468 H       
  28 H28            1.6315    -3.2516    -4.4398 H       
  29 H29            0.0176    -3.9013    -4.8183 H       
  30 H30            1.2809    -1.3730    -5.9742 H       
  31 H31            0.9596    -2.8960    -6.8427 H       
  32 H32           -0.9701    -0.0307    -5.1933 H       
  33 H33           -2.4950    -0.8361    -5.6444 H       
  34 H34           -2.0211    -2.6857    -4.1111 H       
  35 H35           -1.8912    -1.1510    -3.2177 H       
  36 H36           -2.5377    -1.5959    -9.8562 H       
  37 H37           -3.1880    -3.0963    -9.1531 H       
  38 H38           -4.9990    -1.7146   -10.1328 H       
  39 H39           -5.1902    -1.8611    -8.3692 H       
  40 H40           -4.5399    -0.3608    -9.0724 H       
@<TRIPOS>BOND
   1    1    2 1
   2    1   20 1
   3    1   21 1
   4    1   22 1
   5    2    3 ar
   6    2    7 ar
   7    3    4 ar
   8    3   23 1
   9    4    5 ar
  10    4   24 1
  11    5    6 ar
  12    6    7 ar
  13    6    8 1
  14    7   25 1
  15    8    9 1
  16    8   26 1
  17    9   10 1
  18    9   14 1
  19    9   27 1
  20   10   11 1
  21   10   28 1
  22   10   29 1
  23   11   12 1
  24   11   30 1
  25   11   31 1
  26   12   13 1
  27   12   15 am
  28   13   14 1
  29   13   32 1
  30   13   33 1
  31   14   34 1
  32   14   35 1
  33   15   16 2
  34   15   17 1
  35   17   18 1
  36   18   19 1
  37   18   36 1
  38   18   37 1
  39   19   38 1
  40   19   39 1
  41   19   40 1

#	End of record

