#	Name: ASD01940008
#	Creating user name:	WinNT
#	Creation time:	15. 06. 2019 20:11

#	Modifying user name:	WinNT
#	Modification time:	15. 06. 2019 20:11

#	Program:	/corina/corina34_cracker 3.40 0067  02.08.2006

@<TRIPOS>MOLECULE
ASD01940008
  48   50    0    0    0
SMALL
NO_CHARGES


@<TRIPOS>ATOM
   1 C1             0.0614     1.2574     0.0717 C.ar    
   2 C2             0.1030     0.0122    -0.5423 C.ar    
   3 C3            -0.9945    -0.8232    -0.4839 C.ar    
   4 C4            -2.1402    -0.4187     0.1893 C.ar    
   5 C5            -2.1816     0.8263     0.8037 C.ar    
   6 C6            -1.0822     1.6596     0.7497 C.ar    
   7 N7             1.1741     2.1047     0.0121 N.pl3   
   8 C8             0.9970     3.4739    -0.0714 C.2     
   9 C9             1.9779     4.4538    -0.0144 C.2     
  10 C10            1.4783     5.7521    -0.1290 C.2     
  11 N11            0.1935     5.8756    -0.2707 N.2     
  12 S12           -0.4848     4.3229    -0.2755 S.3     
  13 O13            2.2973     6.8351    -0.0935 O.3     
  14 C14            3.4091     4.1528     0.1517 C.2     
  15 N15            3.9539     4.0686     1.4161 N.pl3   
  16 N16            4.1637     3.9653    -0.8988 N.2     
  17 C17            5.3784     3.7690     1.5815 C.3     
  18 C18            6.1872     5.0637     1.4786 C.3     
  19 C19            5.6095     3.1308     2.9527 C.3     
  20 O20            5.3011     4.0782     3.9771 O.3     
  21 N21           -3.2531    -1.2655     0.2481 N.pl3   
  22 C22           -4.0649    -1.2740     1.3848 C.ar    
  23 C23           -5.3933    -1.6694     1.2887 C.ar    
  24 C24           -6.1929    -1.6771     2.4146 C.ar    
  25 C25           -5.6728    -1.2918     3.6367 C.ar    
  26 C26           -4.3510    -0.8976     3.7360 C.ar    
  27 C27           -3.5442    -0.8926     2.6151 C.ar    
  28 H28            0.9938    -0.3023    -1.0657 H       
  29 H29           -0.9625    -1.7911    -0.9620 H       
  30 H30           -3.0725     1.1410     1.3268 H       
  31 H31           -1.1143     2.6275     1.2278 H       
  32 H32            2.0693     1.7315     0.0293 H       
  33 H33            2.6276     7.1071    -0.9608 H       
  34 H34            3.3939     4.2077     2.1958 H       
  35 H35            5.1068     3.7670    -0.7893 H       
  36 H36            5.6974     3.0783     0.8009 H       
  37 H37            5.8682     5.7543     2.2592 H       
  38 H38            7.2470     4.8407     1.6016 H       
  39 H39            6.0225     5.5183     0.5018 H       
  40 H40            4.9664     2.2574     3.0600 H       
  41 H41            6.6526     2.8270     3.0409 H       
  42 H42            5.4252     3.7411     4.8749 H       
  43 H43           -3.4606    -1.8464    -0.5005 H       
  44 H44           -5.8002    -1.9701     0.3345 H       
  45 H45           -7.2258    -1.9840     2.3405 H       
  46 H46           -6.3005    -1.2984     4.5155 H       
  47 H47           -3.9481    -0.5970     4.6918 H       
  48 H48           -2.5119    -0.5850     2.6934 H       
@<TRIPOS>BOND
   1    1    2 ar
   2    1    7 1
   3    1    6 ar
   4    2    3 ar
   5    2   28 1
   6    3    4 ar
   7    3   29 1
   8    4    5 ar
   9    4   21 1
  10    5    6 ar
  11    5   30 1
  12    6   31 1
  13    7    8 1
  14    7   32 1
  15    8    9 2
  16    8   12 1
  17    9   10 1
  18    9   14 1
  19   10   11 2
  20   10   13 1
  21   11   12 1
  22   13   33 1
  23   14   15 1
  24   14   16 2
  25   15   17 1
  26   15   34 1
  27   16   35 1
  28   17   18 1
  29   17   19 1
  30   17   36 1
  31   18   37 1
  32   18   38 1
  33   18   39 1
  34   19   20 1
  35   19   40 1
  36   19   41 1
  37   20   42 1
  38   21   22 1
  39   21   43 1
  40   22   23 ar
  41   22   27 ar
  42   23   24 ar
  43   23   44 1
  44   24   25 ar
  45   24   45 1
  46   25   26 ar
  47   25   46 1
  48   26   27 ar
  49   26   47 1
  50   27   48 1

#	End of record

