#	Name: ASD01914901
#	Creating user name:	WinNT
#	Creation time:	15. 06. 2019 20:04

#	Modifying user name:	WinNT
#	Modification time:	15. 06. 2019 20:04

#	Program:	/corina/corina34_cracker 3.40 0067  02.08.2006

@<TRIPOS>MOLECULE
ASD01914901
  41   42    0    0    0
SMALL
NO_CHARGES


@<TRIPOS>ATOM
   1 C1            -0.0183     1.4975     0.0103 C.3     
   2 C2             0.0021    -0.0041     0.0020 C.2     
   3 C3             1.0625    -0.7053    -0.3357 C.2     
   4 C4             2.3624    -0.0673    -0.7395 C.3     
   5 C5             2.1287     1.4052    -1.0865 C.3     
   6 N6             1.3522     2.0244     0.0000 N.3     
   7 C7             1.3525     3.4884    -0.1208 C.3     
   8 O8            -3.1906    -1.0592     1.0156 O.3     
   9 N9            -2.3739    -0.2093     0.7571 N.2     
  10 C10           -1.2257    -0.7273     0.3917 C.2     
  11 C11           -1.4250    -2.1899     0.4533 C.2     
  12 C12           -2.7238    -2.3051     0.8659 C.2     
  13 C13           -0.4885    -3.2311     0.1542 C.1     
  14 C14            0.2793    -4.0847    -0.0911 C.1     
  15 C15            1.2420    -5.1550    -0.3986 C.3     
  16 C16            0.5757    -6.5161    -0.1882 C.3     
  17 C17            1.5763    -7.6286    -0.5079 C.3     
  18 C18            0.9100    -8.9897    -0.2975 C.3     
  19 C19            1.9106   -10.1022    -0.6172 C.3     
  20 H20           -0.5496     1.8562    -0.8713 H       
  21 H21           -0.5326     1.8466     0.9057 H       
  22 H22            0.9967    -1.7832    -0.3219 H       
  23 H23            3.0723    -0.1374     0.0847 H       
  24 H24            2.7658    -0.5853    -1.6096 H       
  25 H25            3.0873     1.9142    -1.1874 H       
  26 H26            1.5726     1.4773    -2.0212 H       
  27 H27            0.8173     3.9228     0.7237 H       
  28 H28            2.3799     3.8524    -0.1259 H       
  29 H29            0.8603     3.7764    -1.0497 H       
  30 H30           -3.2672    -3.2225     1.0378 H       
  31 H31            1.5660    -5.0654    -1.4354 H       
  32 H32            2.1055    -5.0674     0.2608 H       
  33 H33            0.2517    -6.6057     0.8486 H       
  34 H34           -0.2878    -6.6037    -0.8476 H       
  35 H35            1.9003    -7.5390    -1.5447 H       
  36 H36            2.4399    -7.5410     0.1515 H       
  37 H37            0.5860    -9.0793     0.7393 H       
  38 H38            0.0465    -9.0773    -0.9569 H       
  39 H39            2.2346   -10.0126    -1.6540 H       
  40 H40            2.7742   -10.0146     0.0422 H       
  41 H41            1.4359   -11.0719    -0.4673 H       
@<TRIPOS>BOND
   1    1    2 1
   2    1    6 1
   3    1   20 1
   4    1   21 1
   5    2    3 2
   6    2   10 1
   7    3    4 1
   8    3   22 1
   9    4    5 1
  10    4   23 1
  11    4   24 1
  12    5    6 1
  13    5   25 1
  14    5   26 1
  15    6    7 1
  16    7   27 1
  17    7   28 1
  18    7   29 1
  19    8    9 1
  20    8   12 1
  21    9   10 2
  22   10   11 1
  23   11   12 2
  24   11   13 1
  25   12   30 1
  26   13   14 3
  27   14   15 1
  28   15   16 1
  29   15   31 1
  30   15   32 1
  31   16   17 1
  32   16   33 1
  33   16   34 1
  34   17   18 1
  35   17   35 1
  36   17   36 1
  37   18   19 1
  38   18   37 1
  39   18   38 1
  40   19   39 1
  41   19   40 1
  42   19   41 1

#	End of record

