#	Name: ASD02038884
#	Creating user name:	WinNT
#	Creation time:	15. 06. 2019 20:17

#	Modifying user name:	WinNT
#	Modification time:	15. 06. 2019 20:17

#	Program:	/corina/corina34_cracker 3.40 0067  02.08.2006

@<TRIPOS>MOLECULE
ASD02038884
  57   58    0    0    0
SMALL
NO_CHARGES


@<TRIPOS>ATOM
   1 N1            -0.0179     1.4660     0.0101 N.am    
   2 C2             0.0021    -0.0041     0.0020 C.3     
   3 C3             1.4817    -0.4423     0.0128 C.3     
   4 C4             2.2073     0.7983     0.5975 C.3     
   5 C5             1.3719     1.9577    -0.0005 C.3     
   6 C6            -0.6980    -0.5329     1.2273 C.2     
   7 O7            -1.1713     0.2378     2.0353 O.2     
   8 N8            -0.7981    -1.8623     1.4252 N.am    
   9 C9            -1.1236     2.2365     0.0197 C.2     
  10 O10           -2.2216     1.7215     0.0223 O.2     
  11 N11           -2.3308     4.3536     0.0371 N.am    
  12 C12           -0.9956     3.7381     0.0272 C.3     
  13 C13           -0.2702     4.1965     1.3099 C.3     
  14 C14           -1.4407     4.5897     2.2495 C.3     
  15 C15           -2.4576     5.1882     1.2458 C.3     
  16 C16           -3.2795     4.1872    -0.9056 C.2     
  17 C17           -4.6094     4.8821    -0.7671 C.3     
  18 C18           -5.4941     4.1010     0.2066 C.3     
  19 C19           -6.8858     4.7351     0.2523 C.3     
  20 O20           -3.0628     3.4781    -1.8654 O.2     
  21 O21           -5.6026     2.7451    -0.2312 O.3     
  22 N22           -5.2661     4.9489    -2.0795 N.3     
  23 C23           -0.9568    -3.7530     2.9382 C.2     
  24 C24           -1.4787    -2.3763     2.6163 C.3     
  25 C25           -2.9838    -2.4505     2.3516 C.3     
  26 O26           -0.1007    -4.2552     2.2413 O.2     
  27 O27           -3.2402    -3.4114     1.3255 O.3     
  28 N28           -1.4414    -4.4260     4.0006 N.am    
  29 H29           -0.4883    -0.3765    -0.8974 H       
  30 H30            1.6222    -1.3103     0.6569 H       
  31 H31            1.8295    -0.6512    -0.9989 H       
  32 H32            2.1582     0.8025     1.6863 H       
  33 H33            3.2409     0.8441     0.2544 H       
  34 H34            1.6918     2.1688    -1.0209 H       
  35 H35            1.4634     2.8499     0.6189 H       
  36 H36           -0.4196    -2.4787     0.7789 H       
  37 H37           -0.4412     4.0693    -0.8508 H       
  38 H38            0.3101     3.3791     1.7379 H       
  39 H39            0.3665     5.0574     1.1060 H       
  40 H40           -1.8534     3.7124     2.7475 H       
  41 H41           -1.1236     5.3370     2.9769 H       
  42 H42           -2.2033     6.2238     1.0201 H       
  43 H43           -3.4691     5.1238     1.6468 H       
  44 H44           -4.4540     5.8918    -0.3868 H       
  45 H45           -5.0501     4.1271     1.2018 H       
  46 H46           -7.3297     4.7091    -0.7429 H       
  47 H47           -7.5160     4.1786     0.9460 H       
  48 H48           -6.8030     5.7694     0.5862 H       
  49 H49           -5.9904     2.6458    -1.1115 H       
  50 H50           -4.7323     5.5143    -2.7225 H       
  51 H51           -5.4213     4.0247    -2.4536 H       
  52 H52           -1.2902    -1.7103     3.4583 H       
  53 H53           -3.4991    -2.7480     3.2649 H       
  54 H54           -3.3452    -1.4729     2.0325 H       
  55 H55           -4.1764    -3.5113     1.1052 H       
  56 H56           -2.1261    -4.0243     4.5580 H       
  57 H57           -1.1055    -5.3121     4.2078 H       
@<TRIPOS>BOND
   1    1    2 1
   2    1    5 1
   3    1    9 am
   4    2    3 1
   5    2    6 1
   6    2   29 1
   7    3    4 1
   8    3   30 1
   9    3   31 1
  10    4    5 1
  11    4   32 1
  12    4   33 1
  13    5   34 1
  14    5   35 1
  15    6    7 2
  16    6    8 am
  17    8   24 1
  18    8   36 1
  19    9   10 2
  20    9   12 1
  21   11   12 1
  22   11   15 1
  23   11   16 am
  24   12   13 1
  25   12   37 1
  26   13   14 1
  27   13   38 1
  28   13   39 1
  29   14   15 1
  30   14   40 1
  31   14   41 1
  32   15   42 1
  33   15   43 1
  34   16   17 1
  35   16   20 2
  36   17   18 1
  37   17   22 1
  38   17   44 1
  39   18   19 1
  40   18   21 1
  41   18   45 1
  42   19   46 1
  43   19   47 1
  44   19   48 1
  45   21   49 1
  46   22   50 1
  47   22   51 1
  48   23   24 1
  49   23   26 2
  50   23   28 am
  51   24   25 1
  52   24   52 1
  53   25   27 1
  54   25   53 1
  55   25   54 1
  56   27   55 1
  57   28   56 1
  58   28   57 1

#	End of record

