#	Name: ASD01813892
#	Creating user name:	WinNT
#	Creation time:	15. 06. 2019 19:31

#	Modifying user name:	WinNT
#	Modification time:	15. 06. 2019 19:31

#	Program:	/corina/corina34_cracker 3.40 0067  02.08.2006

@<TRIPOS>MOLECULE
ASD01813892
  44   47    0    0    0
SMALL
NO_CHARGES


@<TRIPOS>ATOM
   1 C1            -0.0169     1.3972     0.0097 C.2     
   2 C2             0.0021    -0.0041     0.0020 C.2     
   3 C3             1.1986    -0.6593    -0.0129 C.2     
   4 C4             2.3918     0.0821    -0.0204 C.2     
   5 N5             2.3437     1.4497    -0.0122 N.am    
   6 C6             1.1421     2.0937     0.0024 C.2     
   7 C7             3.6227    -0.5889    -0.0356 C.2     
   8 C8             4.7877     0.1218    -0.0425 C.2     
   9 C9             4.7345     1.5280    -0.0346 C.2     
  10 C10            3.4812     2.1736    -0.0189 C.2     
  11 O11            3.4258     3.3917    -0.0123 O.2     
  12 C12            5.9703     2.3140    -0.0413 C.2     
  13 O13            5.9124     3.6618    -0.0337 O.3     
  14 O14            7.0487     1.7516    -0.0537 O.2     
  15 C15            3.6593    -2.0954    -0.0439 C.3     
  16 N16            3.7787    -2.5747    -1.4274 N.3     
  17 C17            4.0550    -4.0176    -1.4629 C.3     
  18 C18            4.0930    -4.4914    -2.9177 C.3     
  19 N19            5.1256    -3.7424    -3.6473 N.3     
  20 C20            4.8493    -2.2994    -3.6118 C.3     
  21 C21            4.8113    -1.8256    -2.1570 C.3     
  22 C22            5.2383    -4.1946    -4.9527 C.2     
  23 N23            6.0655    -3.7235    -5.8333 N.2     
  24 C24            6.0382    -4.2753    -7.0335 C.2     
  25 C25            5.1470    -5.2572    -7.1722 C.2     
  26 S26            4.3121    -5.4597    -5.6343 S.3     
  27 H27           -0.9605     1.9226     0.0170 H       
  28 H28           -0.9233    -0.5609     0.0082 H       
  29 H29            1.2282    -1.7389    -0.0187 H       
  30 H30            1.1156     3.1733     0.0087 H       
  31 H31            5.7393    -0.3889    -0.0536 H       
  32 H32            6.7544     4.1373    -0.0385 H       
  33 H33            4.5153    -2.4412     0.5356 H       
  34 H34            2.7412    -2.4836     0.3971 H       
  35 H35            5.0173    -4.2153    -0.9907 H       
  36 H36            3.2701    -4.5514    -0.9270 H       
  37 H37            4.3265    -5.5557    -2.9475 H       
  38 H38            3.1221    -4.3186    -3.3819 H       
  39 H39            5.6342    -1.7656    -4.1477 H       
  40 H40            3.8870    -2.1017    -4.0839 H       
  41 H41            4.5779    -0.7613    -2.1271 H       
  42 H42            5.7823    -1.9984    -1.6927 H       
  43 H43            6.6852    -3.9565    -7.8373 H       
  44 H44            4.9705    -5.8311    -8.0699 H       
@<TRIPOS>BOND
   1    1    2 1
   2    1    6 2
   3    1   27 1
   4    2    3 2
   5    2   28 1
   6    3    4 1
   7    3   29 1
   8    4    5 1
   9    4    7 2
  10    5    6 1
  11    5   10 am
  12    6   30 1
  13    7    8 1
  14    7   15 1
  15    8    9 2
  16    8   31 1
  17    9   10 1
  18    9   12 1
  19   10   11 2
  20   12   13 1
  21   12   14 2
  22   13   32 1
  23   15   16 1
  24   15   33 1
  25   15   34 1
  26   16   17 1
  27   16   21 1
  28   17   18 1
  29   17   35 1
  30   17   36 1
  31   18   19 1
  32   18   37 1
  33   18   38 1
  34   19   20 1
  35   19   22 1
  36   20   21 1
  37   20   39 1
  38   20   40 1
  39   21   41 1
  40   21   42 1
  41   22   23 2
  42   22   26 1
  43   23   24 1
  44   24   25 2
  45   24   43 1
  46   25   26 1
  47   25   44 1

#	End of record

