#	Name: ASD03090750
#	Creating user name:	WinNT
#	Creation time:	15. 06. 2019 20:29

#	Modifying user name:	WinNT
#	Modification time:	15. 06. 2019 20:29

#	Program:	/corina/corina34_cracker 3.40 0067  02.08.2006

@<TRIPOS>MOLECULE
ASD03090750
  39   41    0    0    0
SMALL
NO_CHARGES


@<TRIPOS>ATOM
   1 C1            -0.0184     1.5028     0.0103 C.3     
   2 C2             0.0021    -0.0041     0.0020 C.ar    
   3 C3             0.0229    -0.7015     1.1951 C.ar    
   4 C4             0.0417    -2.0839     1.1875 C.ar    
   5 C5             0.0392    -2.7685    -0.0132 C.ar    
   6 C6             0.0175    -2.0709    -1.2067 C.ar    
   7 C7            -0.0057    -0.6889    -1.1990 C.ar    
   8 C8             0.0153    -2.8173    -2.5158 C.3     
   9 N9            -1.3665    -3.0789    -2.9265 N.am    
  10 C10           -1.6146    -3.7387    -4.0751 C.2     
  11 O11           -0.6941    -4.1159    -4.7689 O.2     
  12 C12           -3.0360    -4.0078    -4.4976 C.3     
  13 C13           -3.5598    -3.2652    -5.7284 C.3     
  14 C14           -3.2518    -4.7615    -5.8114 C.3     
  15 C15           -4.4210    -5.7095    -5.8858 C.ar    
  16 C16           -4.2077    -7.0513    -6.1408 C.ar    
  17 C17           -5.2801    -7.9208    -6.2091 C.ar    
  18 C18           -6.5658    -7.4487    -6.0220 C.ar    
  19 C19           -6.7790    -6.1071    -5.7661 C.ar    
  20 C20           -5.7062    -5.2383    -5.6935 C.ar    
  21 H21            1.0042     1.8801     0.0026 H       
  22 H22           -0.5455     1.8639    -0.8728 H       
  23 H23           -0.5286     1.8543     0.9071 H       
  24 H24            0.0248    -0.1666     2.1333 H       
  25 H25            0.0586    -2.6288     2.1198 H       
  26 H26            0.0546    -3.8483    -0.0192 H       
  27 H27           -0.0227    -0.1440    -2.1313 H       
  28 H28            0.5131    -2.2168    -3.2772 H       
  29 H29            0.5439    -3.7629    -2.3958 H       
  30 H30           -2.1027    -2.7772    -2.3716 H       
  31 H31           -3.7395    -4.1973    -3.6868 H       
  32 H32           -4.6081    -2.9664    -5.7276 H       
  33 H33           -2.8764    -2.5819    -6.2326 H       
  34 H34           -2.3658    -5.0627    -6.3703 H       
  35 H35           -3.2032    -7.4202    -6.2870 H       
  36 H36           -5.1135    -8.9690    -6.4090 H       
  37 H37           -7.4037    -8.1279    -6.0760 H       
  38 H38           -7.7835    -5.7381    -5.6202 H       
  39 H39           -5.8728    -4.1901    -5.4936 H       
@<TRIPOS>BOND
   1    1    2 1
   2    1   21 1
   3    1   22 1
   4    1   23 1
   5    2    3 ar
   6    2    7 ar
   7    3    4 ar
   8    3   24 1
   9    4    5 ar
  10    4   25 1
  11    5    6 ar
  12    5   26 1
  13    6    7 ar
  14    6    8 1
  15    7   27 1
  16    8    9 1
  17    8   28 1
  18    8   29 1
  19    9   10 am
  20    9   30 1
  21   10   11 2
  22   10   12 1
  23   12   13 1
  24   12   14 1
  25   12   31 1
  26   13   14 1
  27   13   32 1
  28   13   33 1
  29   14   15 1
  30   14   34 1
  31   15   16 ar
  32   15   20 ar
  33   16   17 ar
  34   16   35 1
  35   17   18 ar
  36   17   36 1
  37   18   19 ar
  38   18   37 1
  39   19   20 ar
  40   19   38 1
  41   20   39 1

#	End of record

