#	Name: ASD01883513
#	Creating user name:	WinNT
#	Creation time:	15. 06. 2019 19:46

#	Modifying user name:	WinNT
#	Modification time:	15. 06. 2019 19:46

#	Program:	/corina/corina34_cracker 3.40 0067  02.08.2006

@<TRIPOS>MOLECULE
ASD01883513
  55   58    0    0    0
SMALL
NO_CHARGES


@<TRIPOS>ATOM
   1 N1             0.0021     1.3081    -0.0166 N.am    
   2 C2            -0.7262     1.3378     1.1148 C.2     
   3 C3            -1.9756     0.6709     1.1689 C.2     
   4 C4            -2.4258    -0.0117     0.0261 C.2     
   5 C5            -1.6180    -0.0060    -1.1271 C.2     
   6 C6            -0.4364     0.6526    -1.1216 C.2     
   7 O7            -0.3116     1.9374     2.0921 O.2     
   8 C8            -2.7633     0.6918     2.3646 C.1     
   9 N9            -3.3882     0.7084     3.3131 N.1     
  10 C10            1.2915     2.0023    -0.0585 C.3     
  11 C11            2.4005     1.0454     0.3834 C.3     
  12 C12            3.7471     1.7704     0.3396 C.3     
  13 C13            3.7520     2.8998     1.3717 C.3     
  14 C14           -3.7232    -0.7230     0.0347 C.2     
  15 C15           -3.7452    -2.1854    -0.0848 C.2     
  16 C16           -4.8726    -2.8834    -0.3290 C.2     
  17 C17           -6.1006    -2.1911    -0.4632 C.2     
  18 C18           -6.1551    -0.7997     0.1605 C.3     
  19 C19           -4.8721    -0.0131     0.1584 C.2     
  20 N20           -7.2445    -2.4076    -1.0164 N.2     
  21 N21           -8.0385    -1.2590    -1.1301 N.pl3   
  22 C22           -7.2240    -0.1003    -0.6897 C.3     
  23 C23            4.8695     0.7814     0.6606 C.3     
  24 C24           -9.4253    -1.2109    -1.5999 C.3     
  25 C25           -9.4429    -1.0105    -3.0934 C.ar    
  26 C26           -9.4385    -2.0965    -3.9554 C.ar    
  27 C27           -9.4556    -1.8739    -5.3193 C.ar    
  28 N28           -9.4755    -0.6470    -5.8022 N.ar    
  29 C29           -9.4804     0.4092    -5.0126 C.ar    
  30 C30           -9.4699     0.2642    -3.6382 C.ar    
  31 H31           -1.9434    -0.5242    -2.0171 H       
  32 H32            0.1747     0.6499    -2.0121 H       
  33 H33            1.4884     2.3419    -1.0753 H       
  34 H34            1.2638     2.8609     0.6124 H       
  35 H35            2.2036     0.7058     1.4002 H       
  36 H36            2.4282     0.1867    -0.2875 H       
  37 H37            3.9034     2.1869    -0.6555 H       
  38 H38            3.5958     2.4833     2.3668 H       
  39 H39            4.7114     3.4163     1.3406 H       
  40 H40            2.9524     3.6044     1.1431 H       
  41 H41           -2.8172    -2.7264     0.0275 H       
  42 H42           -4.8394    -3.9590    -0.4217 H       
  43 H43           -6.5081    -0.8866     1.1881 H       
  44 H44           -4.8669     1.0635     0.2437 H       
  45 H45           -7.8156     0.5892    -0.0873 H       
  46 H46           -6.7756     0.4109    -1.5416 H       
  47 H47            4.8660    -0.0233    -0.0747 H       
  48 H48            5.8288     1.2979     0.6294 H       
  49 H49            4.7132     0.3649     1.6557 H       
  50 H50           -9.9252    -2.1475    -1.3531 H       
  51 H51           -9.9443    -0.3835    -1.1161 H       
  52 H52           -9.4214    -3.1037    -3.5659 H       
  53 H53           -9.4522    -2.7144    -5.9974 H       
  54 H54           -9.4965     1.3987    -5.4448 H       
  55 H55           -9.4743     1.1330    -2.9967 H       
@<TRIPOS>BOND
   1    1    2 am
   2    1   10 1
   3    1    6 1
   4    2    3 1
   5    2    7 2
   6    3    4 2
   7    3    8 1
   8    4    5 1
   9    4   14 1
  10    5    6 2
  11    5   31 1
  12    6   32 1
  13    8    9 3
  14   10   11 1
  15   10   33 1
  16   10   34 1
  17   11   12 1
  18   11   35 1
  19   11   36 1
  20   12   13 1
  21   12   23 1
  22   12   37 1
  23   13   38 1
  24   13   39 1
  25   13   40 1
  26   14   15 1
  27   14   19 2
  28   15   16 2
  29   15   41 1
  30   16   17 1
  31   16   42 1
  32   17   18 1
  33   17   20 2
  34   18   19 1
  35   18   22 1
  36   18   43 1
  37   19   44 1
  38   20   21 1
  39   21   22 1
  40   21   24 1
  41   22   45 1
  42   22   46 1
  43   23   47 1
  44   23   48 1
  45   23   49 1
  46   24   25 1
  47   24   50 1
  48   24   51 1
  49   25   26 ar
  50   25   30 ar
  51   26   27 ar
  52   26   52 1
  53   27   28 ar
  54   27   53 1
  55   28   29 ar
  56   29   30 ar
  57   29   54 1
  58   30   55 1

#	End of record

