#	Name: ASD05842016
#	Creating user name:	WinNT
#	Creation time:	15. 06. 2019 21:03

#	Modifying user name:	WinNT
#	Modification time:	15. 06. 2019 21:03

#	Program:	/corina/corina34_cracker 3.40 0067  02.08.2006

@<TRIPOS>MOLECULE
ASD05842016
  51   54    0    0    0
SMALL
NO_CHARGES


@<TRIPOS>ATOM
   1 C1            -0.0167     1.3779     0.0096 C.ar    
   2 C2             0.0021    -0.0041     0.0020 C.ar    
   3 C3            -1.1857    -0.7116     0.0095 C.ar    
   4 C4            -2.3919    -0.0369     0.0251 C.ar    
   5 C5            -2.4106     1.3455     0.0336 C.ar    
   6 C6            -1.2232     2.0528     0.0305 C.ar    
   7 C7             1.2780     2.1491     0.0014 C.3     
   8 N8             1.6855     2.4071    -1.3862 N.3     
   9 C9             2.9467     3.1588    -1.4334 C.3     
  10 C10            3.3378     3.4078    -2.8915 C.3     
  11 C11            4.6316     4.1789    -2.9399 C.ar    
  12 C12            5.8376     3.5041    -2.9735 C.ar    
  13 C13            7.0244     4.2114    -3.0178 C.ar    
  14 C14            7.0053     5.5936    -3.0291 C.ar    
  15 C15            5.7993     6.2684    -2.9964 C.ar    
  16 C16            4.6123     5.5610    -2.9564 C.ar    
  17 C17           -3.7258     2.0812     0.0501 C.3     
  18 N18           -4.2468     1.2958     2.2915 N.ar    
  19 C19           -4.1512     2.3178     1.4763 C.ar    
  20 C20           -4.4319     3.6173     1.8935 C.ar    
  21 C21           -4.8188     3.8508     3.1823 C.ar    
  22 C22           -4.9208     2.7507     4.0548 C.ar    
  23 C23           -5.3119     2.9129     5.3933 C.ar    
  24 C24           -5.3983     1.8236     6.2059 C.ar    
  25 C25           -5.1031     0.5492     5.7267 C.ar    
  26 C26           -4.7209     0.3557     4.4348 C.ar    
  27 C27           -4.6205     1.4553     3.5651 C.ar    
  28 H28            0.9446    -0.5313    -0.0101 H       
  29 H29           -1.1711    -1.7915     0.0029 H       
  30 H30           -3.3198    -0.5895     0.0302 H       
  31 H31           -1.2378     3.1327     0.0372 H       
  32 H32            1.1397     3.0969     0.5217 H       
  33 H33            2.0505     1.5677     0.5048 H       
  34 H34            1.7578     1.5464    -1.9078 H       
  35 H35            2.8200     4.1136    -0.9231 H       
  36 H36            3.7307     2.5844    -0.9400 H       
  37 H37            3.4645     2.4530    -3.4018 H       
  38 H38            2.5538     3.9822    -3.3849 H       
  39 H39            5.8526     2.4242    -2.9647 H       
  40 H40            7.9667     3.6842    -3.0433 H       
  41 H41            7.9326     6.1462    -3.0630 H       
  42 H42            5.7843     7.3483    -3.0049 H       
  43 H43            3.6701     6.0883    -2.9309 H       
  44 H44           -3.6131     3.0384    -0.4590 H       
  45 H45           -4.4820     1.4849    -0.4605 H       
  46 H46           -4.3434     4.4391     1.1984 H       
  47 H47           -5.0400     4.8516     3.5228 H       
  48 H48           -5.5426     3.8960     5.7765 H       
  49 H49           -5.6992     1.9493     7.2355 H       
  50 H50           -5.1785    -0.2989     6.3912 H       
  51 H51           -4.4953    -0.6389     4.0795 H       
@<TRIPOS>BOND
   1    1    2 ar
   2    1    7 1
   3    1    6 ar
   4    2    3 ar
   5    2   28 1
   6    3    4 ar
   7    3   29 1
   8    4    5 ar
   9    4   30 1
  10    5    6 ar
  11    5   17 1
  12    6   31 1
  13    7    8 1
  14    7   32 1
  15    7   33 1
  16    8    9 1
  17    8   34 1
  18    9   10 1
  19    9   35 1
  20    9   36 1
  21   10   11 1
  22   10   37 1
  23   10   38 1
  24   11   12 ar
  25   11   16 ar
  26   12   13 ar
  27   12   39 1
  28   13   14 ar
  29   13   40 1
  30   14   15 ar
  31   14   41 1
  32   15   16 ar
  33   15   42 1
  34   16   43 1
  35   17   19 1
  36   17   44 1
  37   17   45 1
  38   18   19 ar
  39   18   27 ar
  40   19   20 ar
  41   20   21 ar
  42   20   46 1
  43   21   22 ar
  44   21   47 1
  45   22   23 ar
  46   22   27 ar
  47   23   24 ar
  48   23   48 1
  49   24   25 ar
  50   24   49 1
  51   25   26 ar
  52   25   50 1
  53   26   27 ar
  54   26   51 1

#	End of record

