#	Name: ASD01916482
#	Creating user name:	WinNT
#	Creation time:	15. 06. 2019 20:07

#	Modifying user name:	WinNT
#	Modification time:	15. 06. 2019 20:07

#	Program:	/corina/corina34_cracker 3.40 0067  02.08.2006

@<TRIPOS>MOLECULE
ASD01916482
  43   46    0    0    0
SMALL
NO_CHARGES


@<TRIPOS>ATOM
   1 C1            -0.0171     1.4100     0.0098 C.ar    
   2 C2             0.0021    -0.0041     0.0020 C.ar    
   3 C3            -1.1919    -0.7253    -0.0191 C.ar    
   4 C4            -2.3848    -0.0638    -0.0212 C.ar    
   5 C5            -2.4222     1.3388    -0.0001 C.ar    
   6 C6            -1.2409     2.0764     0.0149 C.ar    
   7 N7             1.1598     2.0762     0.0021 N.2     
   8 C8             2.3190     1.4677     0.0091 C.2     
   9 N9             2.4224     0.1176     0.0990 N.am    
  10 C10            1.3113    -0.6640     0.0289 C.2     
  11 C11           -3.6837     2.0164     0.0062 C.1     
  12 C12           -4.7180     2.5720     0.0113 C.1     
  13 C13           -5.9795     3.2496     0.0175 C.ar    
  14 N14           -6.0147     4.5785     0.0375 N.ar    
  15 C15           -7.1545     5.2381     0.0438 C.ar    
  16 C16           -8.3642     4.5675     0.0303 C.ar    
  17 C17           -8.3746     3.1793     0.0093 C.ar    
  18 C18           -7.1645     2.5095    -0.0032 C.ar    
  19 O19            1.4013    -1.8775    -0.0099 O.2     
  20 C20            3.5363     2.3520    -0.1379 C.3     
  21 C21            4.7715     1.6580     0.4327 C.3     
  22 C22            4.8656     0.2626    -0.1982 C.3     
  23 C23            3.6962    -0.5718     0.3186 C.3     
  24 O24            4.7899     0.3703    -1.6211 O.3     
  25 C25            6.1672    -0.3870     0.1952 C.2     
  26 C26            7.0270    -0.7423    -0.7271 C.2     
  27 H27           -1.1717    -1.8050    -0.0340 H       
  28 H28           -3.3080    -0.6240    -0.0396 H       
  29 H29           -1.2730     3.1559     0.0298 H       
  30 H30           -7.1446     6.3180     0.0602 H       
  31 H31           -9.2928     5.1191     0.0364 H       
  32 H32           -9.3071     2.6345    -0.0016 H       
  33 H33           -7.1360     1.4301    -0.0200 H       
  34 H34            3.6997     2.5679    -1.1937 H       
  35 H35            3.3692     3.2872     0.3965 H       
  36 H36            5.6639     2.2340     0.1877 H       
  37 H37            4.6764     1.5675     1.5148 H       
  38 H38            3.8276    -0.7499     1.3859 H       
  39 H39            3.6804    -1.5283    -0.2039 H       
  40 H40            4.8433    -0.4775    -2.0831 H       
  41 H41            6.3913    -0.5596     1.2375 H       
  42 H42            7.9598    -1.2079    -0.4451 H       
  43 H43            6.8030    -0.5697    -1.7694 H       
@<TRIPOS>BOND
   1    1    2 ar
   2    1    7 1
   3    1    6 ar
   4    2    3 ar
   5    2   10 1
   6    3    4 ar
   7    3   27 1
   8    4    5 ar
   9    4   28 1
  10    5    6 ar
  11    5   11 1
  12    6   29 1
  13    7    8 2
  14    8    9 1
  15    8   20 1
  16    9   10 am
  17    9   23 1
  18   10   19 2
  19   11   12 3
  20   12   13 1
  21   13   14 ar
  22   13   18 ar
  23   14   15 ar
  24   15   16 ar
  25   15   30 1
  26   16   17 ar
  27   16   31 1
  28   17   18 ar
  29   17   32 1
  30   18   33 1
  31   20   21 1
  32   20   34 1
  33   20   35 1
  34   21   22 1
  35   21   36 1
  36   21   37 1
  37   22   23 1
  38   22   24 1
  39   22   25 1
  40   23   38 1
  41   23   39 1
  42   24   40 1
  43   25   26 2
  44   25   41 1
  45   26   42 1
  46   26   43 1

#	End of record

