#	Name: ASD01948266
#	Creating user name:	WinNT
#	Creation time:	15. 06. 2019 20:14

#	Modifying user name:	WinNT
#	Modification time:	15. 06. 2019 20:14

#	Program:	/corina/corina34_cracker 3.40 0067  02.08.2006

@<TRIPOS>MOLECULE
ASD01948266
  48   51    0    0    0
SMALL
NO_CHARGES


@<TRIPOS>ATOM
   1 C1            -0.0357     2.0655     2.8189 C.ar    
   2 C2            -0.9781     2.1529     1.8093 C.ar    
   3 C3            -0.6480     2.7355     0.5993 C.ar    
   4 C4             0.6247     3.2329     0.3939 C.ar    
   5 C5             1.5736     3.1477     1.4036 C.ar    
   6 C6             1.2393     2.5610     2.6203 C.ar    
   7 C7             3.7453     1.4232     0.8559 C.ar    
   8 C8             3.9548     2.7729     1.1323 C.ar    
   9 N9             2.8622     3.6501     1.1985 N.pl3   
  10 C10            4.8126     0.5517     0.7884 C.ar    
  11 C11            6.1123     1.0243     0.9985 C.ar    
  12 C12            6.3240     2.3819     1.2770 C.ar    
  13 C13            5.2419     3.2532     1.3431 C.ar    
  14 N14            5.4491     4.6133     1.6213 N.am    
  15 I15           -2.9092     1.4000     2.1142 I       
  16 F16            4.6029    -0.7558     0.5205 F       
  17 F17            2.1593     2.4762     3.6060 F       
  18 F18            2.4899     0.9647     0.6584 F       
  19 O19            7.6594     2.5332     1.4283 O.3     
  20 C20            8.2384     1.3345     1.2525 C.2     
  21 N21            7.3387     0.4331     0.9984 N.2     
  22 S22            6.9853     5.1862     1.8542 S.o2    
  23 O23            6.7962     6.4969     2.3694 O.2     
  24 O24            7.6211     4.1790     2.6293 O.2     
  25 C25            7.7005     5.2539     0.1885 C.3     
  26 C26            9.1662     5.6755     0.0657 C.3     
  27 C27            8.7679     4.2163    -0.1647 C.3     
  28 C28            6.7442     5.6909    -0.9230 C.3     
  29 C29            5.6691     4.6205    -1.1208 C.3     
  30 C30            4.8568     4.9396    -2.3775 C.3     
  31 O31            3.8527     3.9398    -2.5623 O.3     
  32 H32           -0.2980     1.6139     3.7643 H       
  33 H33           -1.3860     2.8016    -0.1864 H       
  34 H34            0.8811     3.6874    -0.5517 H       
  35 H35            3.0006     4.6053     1.1020 H       
  36 H36            4.6925     5.2177     1.6771 H       
  37 H37            9.3002     1.1468     1.3136 H       
  38 H38            9.4492     6.2638    -0.8072 H       
  39 H39            9.7007     5.9120     0.9857 H       
  40 H40            9.0404     3.4929     0.6037 H       
  41 H41            8.7890     3.8446    -1.1892 H       
  42 H42            6.2719     6.6335    -0.6462 H       
  43 H43            7.3012     5.8223    -1.8507 H       
  44 H44            6.1434     3.6454    -1.2326 H       
  45 H45            5.0075     4.6055    -0.2547 H       
  46 H46            4.3826     5.9146    -2.2657 H       
  47 H47            5.5184     4.9545    -3.2437 H       
  48 H48            3.2984     4.0785    -3.3424 H       
@<TRIPOS>BOND
   1    1    2 ar
   2    1    6 ar
   3    1   32 1
   4    2    3 ar
   5    2   15 1
   6    3    4 ar
   7    3   33 1
   8    4    5 ar
   9    4   34 1
  10    5    6 ar
  11    5    9 1
  12    6   17 1
  13    7    8 ar
  14    7   10 ar
  15    7   18 1
  16    8    9 1
  17    8   13 ar
  18    9   35 1
  19   10   11 ar
  20   10   16 1
  21   11   12 ar
  22   11   21 1
  23   12   13 ar
  24   12   19 1
  25   13   14 1
  26   14   22 am
  27   14   36 1
  28   19   20 1
  29   20   21 2
  30   20   37 1
  31   22   23 2
  32   22   24 2
  33   22   25 1
  34   25   26 1
  35   25   28 1
  36   25   27 1
  37   26   27 1
  38   26   38 1
  39   26   39 1
  40   27   40 1
  41   27   41 1
  42   28   29 1
  43   28   42 1
  44   28   43 1
  45   29   30 1
  46   29   44 1
  47   29   45 1
  48   30   31 1
  49   30   46 1
  50   30   47 1
  51   31   48 1

#	End of record

