#	Name: ASD09740111
#	Creating user name:	WinNT
#	Creation time:	15. 06. 2019 21:22

#	Modifying user name:	WinNT
#	Modification time:	15. 06. 2019 21:22

#	Program:	/corina/corina34_cracker 3.40 0067  02.08.2006

@<TRIPOS>MOLECULE
ASD09740111
  40   44    0    0    0
SMALL
NO_CHARGES


@<TRIPOS>ATOM
   1 N1            -0.0144     1.2085     0.0087 N.2     
   2 O2             0.0021    -0.0041     0.0020 O.3     
   3 C3             1.2069     1.6818    -0.0004 C.2     
   4 N4             2.0483     0.6273    -0.0141 N.2     
   5 C5             1.2717    -0.4443    -0.0125 C.2     
   6 C6             1.7125    -1.8452    -0.0235 C.2     
   7 C7             1.5933     3.1127     0.0031 C.ar    
   8 C8             0.6045     4.1139     0.0180 C.ar    
   9 C9             0.9907     5.4641     0.0211 C.ar    
  10 C10            2.3370     5.8011     0.0095 C.ar    
  11 C11            3.2981     4.8107    -0.0055 C.ar    
  12 C12            2.9340     3.4751    -0.0024 C.ar    
  13 C13            0.8924    -2.9188    -0.0214 C.2     
  14 C14            1.5654    -4.1313    -0.0336 C.2     
  15 C15            2.9192    -4.0196    -0.0453 C.2     
  16 S16            3.3866    -2.3788    -0.0489 S.3     
  17 C17            0.8659    -5.4402    -0.0333 C.ar    
  18 C18           -0.1386    -5.6960     0.8978 C.ar    
  19 C19            1.2072    -6.4157    -0.9679 C.ar    
  20 C20            0.5531    -7.6310    -0.9635 C.ar    
  21 C21           -0.4397    -7.8815    -0.0335 C.ar    
  22 C22           -0.7862    -6.9148     0.8932 C.ar    
  23 N23           -0.1813     6.1948     0.0359 N.pl3   
  24 C24           -1.2108     5.3066     0.0413 C.2     
  25 N25           -0.7502     4.0889     0.0308 N.2     
  26 C26            3.8758    -5.1839    -0.0590 C.3     
  27 F27            4.1600    -5.5384    -1.3822 F       
  28 F28            5.0603    -4.8219     0.5915 F       
  29 F29            3.2952    -6.2723     0.6010 F       
  30 H30            2.6330     6.8397     0.0119 H       
  31 H31            4.3439     5.0801    -0.0147 H       
  32 H32            3.6968     2.7106    -0.0139 H       
  33 H33           -0.1847    -2.8402    -0.0113 H       
  34 H34           -0.4097    -4.9421     1.6220 H       
  35 H35            1.9820    -6.2209    -1.6947 H       
  36 H36            0.8166    -8.3876    -1.6877 H       
  37 H37           -0.9493    -8.8337    -0.0338 H       
  38 H38           -1.5621    -7.1156     1.6171 H       
  39 H39           -0.2560     7.1619     0.0418 H       
  40 H40           -2.2575     5.5724     0.0529 H       
@<TRIPOS>BOND
   1    1    2 1
   2    1    3 2
   3    2    5 1
   4    3    4 1
   5    3    7 1
   6    4    5 2
   7    5    6 1
   8    6   13 2
   9    6   16 1
  10    7    8 ar
  11    7   12 ar
  12    8    9 ar
  13    8   25 1
  14    9   10 ar
  15    9   23 1
  16   10   11 ar
  17   10   30 1
  18   11   12 ar
  19   11   31 1
  20   12   32 1
  21   13   14 1
  22   13   33 1
  23   14   15 2
  24   14   17 1
  25   15   16 1
  26   15   26 1
  27   17   18 ar
  28   17   19 ar
  29   18   22 ar
  30   18   34 1
  31   19   20 ar
  32   19   35 1
  33   20   21 ar
  34   20   36 1
  35   21   22 ar
  36   21   37 1
  37   22   38 1
  38   23   24 1
  39   23   39 1
  40   24   25 2
  41   24   40 1
  42   26   27 1
  43   26   28 1
  44   26   29 1

#	End of record

