#	Name: ASD06020135
#	Creating user name:	WinNT
#	Creation time:	15. 06. 2019 21:04

#	Modifying user name:	WinNT
#	Modification time:	15. 06. 2019 21:04

#	Program:	/corina/corina34_cracker 3.40 0067  02.08.2006

@<TRIPOS>MOLECULE
ASD06020135
  39   42    0    0    0
SMALL
NO_CHARGES


@<TRIPOS>ATOM
   1 C1             0.0027    -0.0072     0.0093 C.1     
   2 C2            -0.0172     1.4245     0.0312 C.ar    
   3 C3             1.1901     2.1503     0.0274 C.ar    
   4 C4             1.1542     3.5453     0.0485 C.ar    
   5 C5            -0.0618     4.2045     0.0729 C.ar    
   6 C6            -1.2467     3.4894     0.0766 C.ar    
   7 C7            -1.2316     2.1090     0.0507 C.ar    
   8 N8             0.0185    -1.1430    -0.0081 N.1     
   9 F9             2.3060     4.2514     0.0454 F       
  10 C10            6.1986     0.2754    -0.0575 C.ar    
  11 C11            4.8501     0.6480    -0.0364 C.ar    
  12 C12            3.8602    -0.3417    -0.0386 C.ar    
  13 C13            4.2978    -1.6921    -0.0627 C.ar    
  14 C14            5.6308    -1.9646    -0.0822 C.ar    
  15 N15            6.5391    -1.0007    -0.0789 N.ar    
  16 S16            4.0607     2.2209    -0.0057 S.3     
  17 C17            2.4844     1.4402     0.0017 C.2     
  18 N18            2.6228     0.1543    -0.0175 N.2     
  19 F19            3.3973    -2.6992    -0.0657 F       
  20 N20            7.1881     1.2564    -0.0612 N.pl3   
  21 C21           10.1344    -0.7300     0.3142 C.ar    
  22 N22            8.8680    -0.3774     0.2269 N.ar    
  23 C23            8.5245     0.8941     0.0299 C.ar    
  24 C24            9.5255     1.8541    -0.0837 C.ar    
  25 C25           10.8503     1.4397     0.0143 C.ar    
  26 N26           11.1106     0.1485     0.2119 N.ar    
  27 C27           10.4759    -2.1797     0.5439 C.3     
  28 N28           11.8839     2.3574    -0.0917 N.pl3   
  29 H29           -0.0867     5.2840     0.0895 H       
  30 H30           -2.1900     4.0149     0.0962 H       
  31 H31           -2.1611     1.5591     0.0496 H       
  32 H32            5.9567    -2.9940    -0.1004 H       
  33 H33            6.9428     2.1925    -0.1275 H       
  34 H34            9.2806     2.8937    -0.2442 H       
  35 H35           10.5852    -2.6838    -0.4163 H       
  36 H36           11.4113    -2.2491     1.0993 H       
  37 H37            9.6783    -2.6549     1.1150 H       
  38 H38           11.6863     3.2961    -0.2353 H       
  39 H39           12.8048     2.0608    -0.0223 H       
@<TRIPOS>BOND
   1    1    2 1
   2    1    8 3
   3    2    3 ar
   4    2    7 ar
   5    3    4 ar
   6    3   17 1
   7    4    5 ar
   8    4    9 1
   9    5    6 ar
  10    5   29 1
  11    6    7 ar
  12    6   30 1
  13    7   31 1
  14   10   11 ar
  15   10   15 ar
  16   10   20 1
  17   11   12 ar
  18   11   16 1
  19   12   13 ar
  20   12   18 1
  21   13   14 ar
  22   13   19 1
  23   14   15 ar
  24   14   32 1
  25   16   17 1
  26   17   18 2
  27   20   23 1
  28   20   33 1
  29   21   22 ar
  30   21   26 ar
  31   21   27 1
  32   22   23 ar
  33   23   24 ar
  34   24   25 ar
  35   24   34 1
  36   25   26 ar
  37   25   28 1
  38   27   35 1
  39   27   36 1
  40   27   37 1
  41   28   38 1
  42   28   39 1

#	End of record

