#	Name: ASD01915484
#	Creating user name:	WinNT
#	Creation time:	15. 06. 2019 20:05

#	Modifying user name:	WinNT
#	Modification time:	15. 06. 2019 20:05

#	Program:	/corina/corina34_cracker 3.40 0067  02.08.2006

@<TRIPOS>MOLECULE
ASD01915484
  43   46    0    0    0
SMALL
NO_CHARGES


@<TRIPOS>ATOM
   1 C1            -0.0167     1.3839     0.0097 C.ar    
   2 C2             0.0021    -0.0041     0.0020 C.ar    
   3 N3             1.1018     2.0836     0.0027 N.ar    
   4 C4             2.2836     1.5034    -0.0125 C.ar    
   5 C5             2.3861     0.1109    -0.0048 C.ar    
   6 C6             1.2261    -0.6638    -0.0050 C.ar    
   7 C7             3.5423     2.3316    -0.0608 C.3     
   8 C8             4.6580     1.6354     0.7138 C.3     
   9 N9             4.8025     0.2446     0.2895 N.am    
  10 C10            3.7228    -0.5158     0.0239 C.2     
  11 O11            3.8477    -1.7060    -0.1901 O.2     
  12 O12           -1.1602    -0.7087     0.0018 O.3     
  13 C13           -2.3751     0.0437     0.0097 C.3     
  14 C14           -3.5503    -0.8996     0.0083 C.ar    
  15 C15           -4.0855    -1.3388     1.2047 C.ar    
  16 C16           -4.0966    -1.3213    -1.1895 C.ar    
  17 C17           -5.1746    -2.1866    -1.1908 C.ar    
  18 C18           -5.7060    -2.6306     0.0056 C.ar    
  19 C19           -5.1635    -2.2042     1.2034 C.ar    
  20 C20            6.0835    -0.3062     0.1566 C.ar    
  21 C21            6.7533    -0.2259    -1.0593 C.ar    
  22 C22            8.0180    -0.7708    -1.1874 C.ar    
  23 C23            8.6159    -1.3955    -0.1060 C.ar    
  24 C24            7.9497    -1.4760     1.1054 C.ar    
  25 C25            6.6886    -0.9282     1.2399 C.ar    
  26 F26            6.1693     0.3833    -2.1144 F       
  27 F27            9.8512    -1.9276    -0.2329 F       
  28 H28           -0.9650     1.9009     0.0169 H       
  29 H29            1.2771    -1.7426    -0.0099 H       
  30 H30            3.8496     2.4620    -1.0984 H       
  31 H31            3.3495     3.3084     0.3827 H       
  32 H32            5.5966     2.1618     0.5401 H       
  33 H33            4.4253     1.6624     1.7783 H       
  34 H34           -2.4106     0.6670     0.9032 H       
  35 H35           -2.4162     0.6767    -0.8767 H       
  36 H36           -3.6613    -1.0061     2.1405 H       
  37 H37           -3.6814    -0.9744    -2.1242 H       
  38 H38           -5.6019    -2.5155    -2.1266 H       
  39 H39           -6.5485    -3.3064     0.0045 H       
  40 H40           -5.5787    -2.5510     2.1381 H       
  41 H41            8.5392    -0.7095    -2.1313 H       
  42 H42            8.4182    -1.9641     1.9471 H       
  43 H43            6.1702    -0.9917     2.1852 H       
@<TRIPOS>BOND
   1    1    2 ar
   2    1    3 ar
   3    1   28 1
   4    2   12 1
   5    2    6 ar
   6    3    4 ar
   7    4    5 ar
   8    4    7 1
   9    5    6 ar
  10    5   10 1
  11    6   29 1
  12    7    8 1
  13    7   30 1
  14    7   31 1
  15    8    9 1
  16    8   32 1
  17    8   33 1
  18    9   10 am
  19    9   20 1
  20   10   11 2
  21   12   13 1
  22   13   14 1
  23   13   34 1
  24   13   35 1
  25   14   15 ar
  26   14   16 ar
  27   15   19 ar
  28   15   36 1
  29   16   17 ar
  30   16   37 1
  31   17   18 ar
  32   17   38 1
  33   18   19 ar
  34   18   39 1
  35   19   40 1
  36   20   21 ar
  37   20   25 ar
  38   21   22 ar
  39   21   26 1
  40   22   23 ar
  41   22   41 1
  42   23   24 ar
  43   23   27 1
  44   24   25 ar
  45   24   42 1
  46   25   43 1

#	End of record

