#	Name: ASD01816646
#	Creating user name:	WinNT
#	Creation time:	15. 06. 2019 19:35

#	Modifying user name:	WinNT
#	Modification time:	15. 06. 2019 19:35

#	Program:	/corina/corina34_cracker 3.40 0067  02.08.2006

@<TRIPOS>MOLECULE
ASD01816646
  46   50    0    0    0
SMALL
NO_CHARGES


@<TRIPOS>ATOM
   1 C1            -0.0167     1.3813     0.0096 C.ar    
   2 C2             0.0021    -0.0041     0.0020 C.ar    
   3 C3             1.1983    -0.6909    -0.0131 C.ar    
   4 C4             2.4015     0.0059    -0.0209 C.ar    
   5 C5             2.3790     1.4106    -0.0132 C.ar    
   6 C6             1.1662     2.0917     0.0022 C.ar    
   7 N7             3.6052    -0.6771    -0.0356 N.pl3   
   8 C8             4.7970    -0.0585    -0.0432 C.2     
   9 C9             4.8998     1.3104    -0.0373 C.2     
  10 C10            3.6669     2.1302    -0.0217 C.2     
  11 C11            5.9971     2.2731    -0.0432 C.2     
  12 N12            5.4245     3.4962    -0.0323 N.am    
  13 N13            4.0322     3.3800    -0.0195 N.2     
  14 O14            7.1910     2.0232    -0.0551 O.2     
  15 C15            6.1221     4.7010    -0.0324 C.ar    
  16 C16            3.5778    -2.1419    -0.0427 C.3     
  17 C17            3.5551    -2.6370    -1.4659 C.ar    
  18 C18            4.7420    -2.8862    -2.1295 C.ar    
  19 C19            4.7224    -3.3407    -3.4344 C.ar    
  20 C20            3.5134    -3.5464    -4.0772 C.ar    
  21 C21            2.3253    -3.2965    -3.4116 C.ar    
  22 C22            2.3473    -2.8470    -2.1049 C.ar    
  23 F23            3.4930    -3.9903    -5.3530 F       
  24 C24            7.0589     4.9649    -1.0221 C.ar    
  25 C25            5.8774     5.6598     0.9669 C.ar    
  26 C26            6.5865     6.8664     0.9538 C.ar    
  27 C27            7.5159     7.1058    -0.0342 C.ar    
  28 C28            7.7496     6.1602    -1.0204 C.ar    
  29 C29            4.8851     5.3973     2.0158 C.2     
  30 O30            4.6775     6.2273     2.8757 O.2     
  31 H31           -0.9602     1.9069     0.0170 H       
  32 H32           -0.9289    -0.5515     0.0083 H       
  33 H33            1.2003    -1.7709    -0.0186 H       
  34 H34            1.1505     3.1715     0.0077 H       
  35 H35            5.6982    -0.6535    -0.0540 H       
  36 H36            4.4656    -2.5243     0.4609 H       
  37 H37            2.6861    -2.4911     0.4778 H       
  38 H38            5.6849    -2.7254    -1.6280 H       
  39 H39            5.6497    -3.5351    -3.9528 H       
  40 H40            1.3817    -3.4566    -3.9119 H       
  41 H41            1.4208    -2.6520    -1.5855 H       
  42 H42            7.2480     4.2340    -1.7944 H       
  43 H43            6.4050     7.6088     1.7169 H       
  44 H44            8.0620     8.0374    -0.0433 H       
  45 H45            8.4809     6.3580    -1.7902 H       
  46 H46            4.3398     4.4651     2.0221 H       
@<TRIPOS>BOND
   1    1    2 ar
   2    1    6 ar
   3    1   31 1
   4    2    3 ar
   5    2   32 1
   6    3    4 ar
   7    3   33 1
   8    4    5 ar
   9    4    7 1
  10    5    6 ar
  11    5   10 1
  12    6   34 1
  13    7    8 1
  14    7   16 1
  15    8    9 2
  16    8   35 1
  17    9   10 1
  18    9   11 1
  19   10   13 2
  20   11   12 am
  21   11   14 2
  22   12   13 1
  23   12   15 1
  24   15   24 ar
  25   15   25 ar
  26   16   17 1
  27   16   36 1
  28   16   37 1
  29   17   18 ar
  30   17   22 ar
  31   18   19 ar
  32   18   38 1
  33   19   20 ar
  34   19   39 1
  35   20   21 ar
  36   20   23 1
  37   21   22 ar
  38   21   40 1
  39   22   41 1
  40   24   28 ar
  41   24   42 1
  42   25   26 ar
  43   25   29 1
  44   26   27 ar
  45   26   43 1
  46   27   28 ar
  47   27   44 1
  48   28   45 1
  49   29   30 2
  50   29   46 1

#	End of record

