#	Name: ASD05503009
#	Creating user name:	WinNT
#	Creation time:	15. 06. 2019 21:01

#	Modifying user name:	WinNT
#	Modification time:	15. 06. 2019 21:01

#	Program:	/corina/corina34_cracker 3.40 0067  02.08.2006

@<TRIPOS>MOLECULE
ASD05503009
  45   46    0    0    0
SMALL
NO_CHARGES


@<TRIPOS>ATOM
   1 C1             0.0863     0.9638     0.2485 C.ar    
   2 C2             0.2553    -0.4098     0.3676 C.ar    
   3 C3             1.5198    -0.9658     0.2361 C.ar    
   4 C4             2.6118    -0.1472    -0.0140 C.ar    
   5 C5             2.4359     1.2262    -0.1321 C.ar    
   6 C6             1.1758     1.7765    -0.0006 C.ar    
   7 N7            -0.8484    -1.2319     0.6204 N.am    
   8 C8            -0.8912    -2.4784     0.1097 C.2     
   9 C9            -2.0207    -3.4054     0.4784 C.3     
  10 O10           -0.0206    -2.8542    -0.6466 O.2     
  11 C11           -1.8316    -4.7474    -0.2317 C.3     
  12 C12           -2.9784    -5.6885     0.1426 C.3     
  13 N13            3.8879    -0.7035    -0.1467 N.am    
  14 C14            4.9700    -0.0136     0.2651 C.2     
  15 C15            6.3255    -0.5508     0.0222 C.ar    
  16 O16            4.8312     1.0505     0.8363 O.2     
  17 C17            6.4944    -1.7106    -0.7355 C.ar    
  18 C18            7.7625    -2.2064    -0.9589 C.ar    
  19 C19            8.8650    -1.5566    -0.4336 C.ar    
  20 C20            8.7045    -0.4064     0.3190 C.ar    
  21 C21            7.4428     0.1031     0.5450 C.ar    
  22 C22            7.2699     1.3560     1.3643 C.3     
  23 C23            6.8015     0.9839     2.7725 C.3     
  24 H24           -0.8983     1.3966     0.3463 H       
  25 H25            1.6539    -2.0335     0.3287 H       
  26 H26            3.2855     1.8641    -0.3264 H       
  27 H27            1.0417     2.8441    -0.0931 H       
  28 H28           -1.5827    -0.9047     1.1632 H       
  29 H29           -2.0245    -3.5624     1.5570 H       
  30 H30           -2.9686    -2.9628     0.1723 H       
  31 H31           -1.8278    -4.5903    -1.3103 H       
  32 H32           -0.8838    -5.1900     0.0744 H       
  33 H33           -2.9822    -5.8455     1.2212 H       
  34 H34           -3.9263    -5.2458    -0.1635 H       
  35 H35           -2.8437    -6.6445    -0.3633 H       
  36 H36            3.9943    -1.5859    -0.5352 H       
  37 H37            5.6344    -2.2190    -1.1459 H       
  38 H38            7.8946    -3.1040    -1.5447 H       
  39 H39            9.8554    -1.9489    -0.6114 H       
  40 H40            9.5694     0.0959     0.7265 H       
  41 H41            8.2214     1.8842     1.4256 H       
  42 H42            6.5270     1.9991     0.8924 H       
  43 H43            6.6765     1.8901     3.3651 H       
  44 H44            5.8501     0.4557     2.7112 H       
  45 H45            7.5444     0.3408     3.2444 H       
@<TRIPOS>BOND
   1    1    2 ar
   2    1    6 ar
   3    1   24 1
   4    2    3 ar
   5    2    7 1
   6    3    4 ar
   7    3   25 1
   8    4    5 ar
   9    4   13 1
  10    5    6 ar
  11    5   26 1
  12    6   27 1
  13    7    8 am
  14    7   28 1
  15    8    9 1
  16    8   10 2
  17    9   11 1
  18    9   29 1
  19    9   30 1
  20   11   12 1
  21   11   31 1
  22   11   32 1
  23   12   33 1
  24   12   34 1
  25   12   35 1
  26   13   14 am
  27   13   36 1
  28   14   15 1
  29   14   16 2
  30   15   17 ar
  31   15   21 ar
  32   17   18 ar
  33   17   37 1
  34   18   19 ar
  35   18   38 1
  36   19   20 ar
  37   19   39 1
  38   20   21 ar
  39   20   40 1
  40   21   22 1
  41   22   23 1
  42   22   41 1
  43   22   42 1
  44   23   43 1
  45   23   44 1
  46   23   45 1

#	End of record

