#	Name: ASD02810004
#	Creating user name:	WinNT
#	Creation time:	15. 06. 2019 20:26

#	Modifying user name:	WinNT
#	Modification time:	15. 06. 2019 20:26

#	Program:	/corina/corina34_cracker 3.40 0067  02.08.2006

@<TRIPOS>MOLECULE
ASD02810004
  21   20    0    0    0
SMALL
NO_CHARGES


@<TRIPOS>ATOM
   1 C1            -0.0187     1.5258     0.0104 C.3     
   2 C2             0.0021    -0.0041     0.0020 C.3     
   3 C3            -1.4333    -0.5336     0.0129 C.3     
   4 P4             1.6916     2.1568    -0.0025 P.3     
   5 O5             2.4039     1.7481    -1.3873 O.3     
   6 O6             1.6730     3.7605     0.1386 O.3     
   7 O7             2.4423     1.5705     1.1303 O.2     
   8 P8            -1.4086    -2.3565     0.0029 P.3     
   9 O9            -0.7468    -2.8917     1.3694 O.3     
  10 O10           -2.9145    -2.9129    -0.1181 O.3     
  11 O11           -0.6126    -2.8327    -1.1504 O.2     
  12 H12           -0.5459     1.8868    -0.8726 H       
  13 H13           -0.5289     1.8773     0.9072 H       
  14 H14            0.5123    -0.3556    -0.8948 H       
  15 H15            0.5293    -0.3651     0.8851 H       
  16 H16           -1.9435    -0.1821     0.9097 H       
  17 H17           -1.9605    -0.1726    -0.8702 H       
  18 H18            1.9645     2.0987    -2.1741 H       
  19 H19            2.5511     4.1655     0.1390 H       
  20 H20           -1.2174    -2.6171     2.1683 H       
  21 H21           -2.9776    -3.8778    -0.1293 H       
@<TRIPOS>BOND
   1    1    2 1
   2    1    4 1
   3    1   12 1
   4    1   13 1
   5    2    3 1
   6    2   14 1
   7    2   15 1
   8    3    8 1
   9    3   16 1
  10    3   17 1
  11    4    5 1
  12    4    6 1
  13    4    7 2
  14    5   18 1
  15    6   19 1
  16    8    9 1
  17    8   10 1
  18    8   11 2
  19    9   20 1
  20   10   21 1

#	End of record

