#	Name: ASD05313195
#	Creating user name:	WinNT
#	Creation time:	15. 06. 2019 20:58

#	Modifying user name:	WinNT
#	Modification time:	15. 06. 2019 20:58

#	Program:	/corina/corina34_cracker 3.40 0067  02.08.2006

@<TRIPOS>MOLECULE
ASD05313195
  34   37    0    0    0
SMALL
NO_CHARGES


@<TRIPOS>ATOM
   1 C1            -0.0722     0.8174     1.0241 C.2     
   2 C2             0.1138    -0.6190     0.5965 C.3     
   3 N3             0.9302     1.7305     1.0503 N.pl3   
   4 N4             1.4569    -0.7184    -0.0053 N.am    
   5 C5             2.5713    -0.0369     0.6707 C.3     
   6 C6             2.3168     1.4753     0.6640 C.3     
   7 N7            -0.9058     2.6403     1.7088 N.2     
   8 N8            -1.1577     1.4082     1.4268 N.2     
   9 C9             0.3714     2.8913     1.4955 C.2     
  10 S10            2.7268     4.5298     1.4331 S.3     
  11 N11            2.6000     6.1551     1.9136 N.2     
  12 C12            1.3495     6.3319     2.2380 C.2     
  13 N13            0.5387     5.3106     2.1319 N.2     
  14 C14            1.0616     4.1776     1.7014 C.2     
  15 C15            1.6573    -1.4143    -1.1420 C.2     
  16 O16            2.7489    -1.4037    -1.6767 O.2     
  17 C17            0.5500    -2.1902    -1.7383 C.ar    
  18 C18            0.3185    -2.1382    -3.1151 C.ar    
  19 C19           -0.7194    -2.8668    -3.6652 C.ar    
  20 C20           -1.5273    -3.6453    -2.8546 C.ar    
  21 C21           -1.3023    -3.6996    -1.4905 C.ar    
  22 C22           -0.2659    -2.9828    -0.9292 C.ar    
  23 Cl23          -1.0104    -2.8049    -5.3756 Cl      
  24 Cl24           1.3309    -1.1609    -4.1318 Cl      
  25 H25            0.0447    -1.2769     1.4628 H       
  26 H26           -0.6442    -0.8894    -0.1386 H       
  27 H27            2.6434    -0.3894     1.6995 H       
  28 H28            3.5019    -0.2517     0.1454 H       
  29 H29            2.4948     1.8702    -0.3362 H       
  30 H30            2.9876     1.9606     1.3729 H       
  31 H31            0.9942     7.2914     2.5837 H       
  32 H32           -2.3372    -4.2126    -3.2888 H       
  33 H33           -1.9368    -4.3089    -0.8640 H       
  34 H34           -0.0894    -3.0307     0.1352 H       
@<TRIPOS>BOND
   1    1    2 1
   2    1    3 1
   3    1    8 2
   4    2    4 1
   5    2   25 1
   6    2   26 1
   7    3    6 1
   8    3    9 1
   9    4    5 1
  10    4   15 am
  11    5    6 1
  12    5   27 1
  13    5   28 1
  14    6   29 1
  15    6   30 1
  16    7    8 1
  17    7    9 2
  18    9   14 1
  19   10   11 1
  20   10   14 1
  21   11   12 2
  22   12   13 1
  23   12   31 1
  24   13   14 2
  25   15   16 2
  26   15   17 1
  27   17   18 ar
  28   17   22 ar
  29   18   19 ar
  30   18   24 1
  31   19   20 ar
  32   19   23 1
  33   20   21 ar
  34   20   32 1
  35   21   22 ar
  36   21   33 1
  37   22   34 1

#	End of record

