#	Name: ASD05490238
#	Creating user name:	WinNT
#	Creation time:	15. 06. 2019 21:01

#	Modifying user name:	WinNT
#	Modification time:	15. 06. 2019 21:01

#	Program:	/corina/corina34_cracker 3.40 0067  02.08.2006

@<TRIPOS>MOLECULE
ASD05490238
  61   64    0    0    0
SMALL
NO_CHARGES


@<TRIPOS>ATOM
   1 N1            -0.0141     1.3235    -0.0015 N.ar    
   2 C2             0.0026    -0.0006    -0.0084 C.ar    
   3 C3             1.1990    -0.7004    -0.0177 C.ar    
   4 C4             2.3953     0.0106    -0.0206 C.ar    
   5 C5             2.3403     1.4047    -0.0167 C.ar    
   6 C6             1.1046     2.0380    -0.0054 C.ar    
   7 N7             3.6186    -0.6479    -0.0229 N.3     
   8 C8             3.4706    -2.0318    -0.4926 C.3     
   9 C9             4.7908    -2.7480    -0.3696 C.ar    
  10 C10            5.1055    -3.4215     0.7956 C.ar    
  11 C11            6.3164    -4.0786     0.9090 C.ar    
  12 C12            7.2133    -4.0620    -0.1440 C.ar    
  13 C13            6.8977    -3.3875    -1.3103 C.ar    
  14 C14            5.6845    -2.7357    -1.4245 C.ar    
  15 N15            8.9774    -2.4493    -2.1468 N.3     
  16 C16           10.0676    -2.5802    -3.1308 C.3     
  17 C17           10.2998    -1.1834    -3.7444 C.3     
  18 C18            9.7185    -0.2282    -2.6689 C.3     
  19 C19            8.5124    -1.0459    -2.1432 C.3     
  20 N20            1.0387     3.4288     0.0014 N.pl3   
  21 O21           -1.1706    -0.6834    -0.0057 O.3     
  22 C22           -2.3717     0.0907     0.0045 C.3     
  23 C23           -3.5818    -0.8456     0.0060 C.3     
  24 N24            3.5364     2.1439    -0.0281 N.am    
  25 C25            4.6273     0.0692    -0.8098 C.3     
  26 C26            4.6763     1.5173    -0.3971 C.2     
  27 O27            5.7308     2.1170    -0.3962 O.2     
  28 C28            7.8745    -3.3685    -2.4577 C.3     
  29 C29           -4.8678    -0.0167     0.0169 C.3     
  30 C30           -6.0780    -0.9530     0.0184 C.3     
  31 Cl31           8.7344    -4.8864    -0.0021 Cl      
  32 H32            1.2028    -1.7804    -0.0223 H       
  33 H33            2.7222    -2.5430     0.1130 H       
  34 H34            3.1542    -2.0297    -1.5357 H       
  35 H35            4.4053    -3.4341     1.6178 H       
  36 H36            6.5623    -4.6045     1.8197 H       
  37 H37            5.4381    -2.2093    -2.3348 H       
  38 H38           10.9757    -2.9229    -2.6347 H       
  39 H39            9.7802    -3.2849    -3.9111 H       
  40 H40           11.3641    -0.9983    -3.8895 H       
  41 H41            9.7579    -1.0806    -4.6845 H       
  42 H42           10.4431    -0.0469    -1.8751 H       
  43 H43            9.3892     0.7095    -3.1165 H       
  44 H44            7.6559    -0.9282    -2.8071 H       
  45 H45            8.2548    -0.7341    -1.1311 H       
  46 H46            1.8548     3.9530    -0.0018 H       
  47 H47            0.1767     3.8734     0.0093 H       
  48 H48           -2.3941     0.7149     0.8978 H       
  49 H49           -2.4034     0.7239    -0.8821 H       
  50 H50           -3.5594    -1.4697    -0.8873 H       
  51 H51           -3.5501    -1.4788     0.8926 H       
  52 H52            3.5434     3.0810     0.2224 H       
  53 H53            5.6039    -0.3863    -0.6459 H       
  54 H54            4.3736     0.0036    -1.8678 H       
  55 H55            8.2708    -4.3718    -2.6141 H       
  56 H56            7.3663    -3.0336    -3.3619 H       
  57 H57           -4.8903     0.6074     0.9102 H       
  58 H58           -4.8995     0.6165    -0.8697 H       
  59 H59           -6.0555    -1.5772    -0.8749 H       
  60 H60           -6.0463    -1.5862     0.9051 H       
  61 H61           -6.9941    -0.3625     0.0262 H       
@<TRIPOS>BOND
   1    1    2 ar
   2    1    6 ar
   3    2    3 ar
   4    2   21 1
   5    3    4 ar
   6    3   32 1
   7    4    5 ar
   8    4    7 1
   9    5    6 ar
  10    5   24 1
  11    6   20 1
  12    7    8 1
  13    7   25 1
  14    8    9 1
  15    8   33 1
  16    8   34 1
  17    9   10 ar
  18    9   14 ar
  19   10   11 ar
  20   10   35 1
  21   11   12 ar
  22   11   36 1
  23   12   13 ar
  24   12   31 1
  25   13   14 ar
  26   13   28 1
  27   14   37 1
  28   15   16 1
  29   15   19 1
  30   15   28 1
  31   16   17 1
  32   16   38 1
  33   16   39 1
  34   17   18 1
  35   17   40 1
  36   17   41 1
  37   18   19 1
  38   18   42 1
  39   18   43 1
  40   19   44 1
  41   19   45 1
  42   20   46 1
  43   20   47 1
  44   21   22 1
  45   22   23 1
  46   22   48 1
  47   22   49 1
  48   23   29 1
  49   23   50 1
  50   23   51 1
  51   24   26 am
  52   24   52 1
  53   25   26 1
  54   25   53 1
  55   25   54 1
  56   26   27 2
  57   28   55 1
  58   28   56 1
  59   29   30 1
  60   29   57 1
  61   29   58 1
  62   30   59 1
  63   30   60 1
  64   30   61 1

#	End of record

