#	Name: ASD03091896
#	Creating user name:	WinNT
#	Creation time:	15. 06. 2019 20:31

#	Modifying user name:	WinNT
#	Modification time:	15. 06. 2019 20:31

#	Program:	/corina/corina34_cracker 3.40 0067  02.08.2006

@<TRIPOS>MOLECULE
ASD03091896
  57   61    0    0    0
SMALL
NO_CHARGES


@<TRIPOS>ATOM
   1 C1            -0.0169     1.3985     0.0097 C.ar    
   2 C2            -1.2302     2.0674     0.0172 C.ar    
   3 C3            -2.4111     1.3483     0.0075 C.ar    
   4 C4            -2.3928    -0.0370    -0.0097 C.ar    
   5 C5            -1.1929    -0.7184    -0.0120 C.ar    
   6 C6             0.0021    -0.0041     0.0020 C.ar    
   7 O7             1.1600     2.0714     0.0021 O.3     
   8 C8             2.2745     1.4626     0.6521 C.3     
   9 N9             2.4122     0.0611     0.2540 N.am    
  10 C10            1.3112    -0.6873     0.0165 C.2     
  11 C11           -3.6901    -0.8037    -0.0254 C.3     
  12 C12           -4.1788    -0.9350    -1.4449 C.ar    
  13 C13           -5.0091     0.0331    -1.9923 C.ar    
  14 C14           -3.7998    -2.0178    -2.2158 C.ar    
  15 N15           -4.2200    -2.1438    -3.4585 N.ar    
  16 C16           -5.0185    -1.2434    -4.0173 C.ar    
  17 C17           -5.4355    -0.1244    -3.2994 C.ar    
  18 O18            1.3964    -1.8844    -0.1786 O.2     
  19 C19           -5.4660    -1.4264    -5.4196 C.2     
  20 C20           -5.2197    -2.5119    -6.2102 C.2     
  21 N21           -5.7963    -2.2841    -7.4062 N.pl3   
  22 N22           -6.4163    -1.0296    -7.3622 N.2     
  23 C23           -6.2282    -0.5145    -6.1765 C.2     
  24 Cl24          -1.2676     3.8029     0.0392 Cl      
  25 C25           -3.7298     2.0777     0.0161 C.3     
  26 C26           -5.7774    -3.1926    -8.5553 C.3     
  27 C27            3.7444    -0.5318     0.1123 C.3     
  28 C28            4.1792    -1.1348     1.4495 C.3     
  29 C29            5.6159    -1.7048     1.3407 C.3     
  30 C30            6.0703    -1.6442     2.8245 C.3     
  31 C31            5.3581    -0.3725     3.3336 C.3     
  32 O32            4.2564    -0.1127     2.4558 O.3     
  33 H33           -1.1808    -1.7983    -0.0245 H       
  34 H34            3.1833     2.0017     0.3846 H       
  35 H35            2.1323     1.5159     1.7315 H       
  36 H36           -3.5311    -1.7957     0.3974 H       
  37 H37           -4.4340    -0.2711     0.5672 H       
  38 H38           -5.3160     0.8901    -1.4110 H       
  39 H39           -3.1501    -2.7705    -1.7942 H       
  40 H40           -6.0827     0.6095    -3.7564 H       
  41 H41           -4.6630    -3.3933    -5.9281 H       
  42 H42           -6.5911     0.4443    -5.8367 H       
  43 H43           -4.0472     2.2666    -1.0094 H       
  44 H44           -4.4788     1.4683     0.5219 H       
  45 H45           -3.6172     3.0257     0.5421 H       
  46 H46           -6.6391    -3.8583    -8.5064 H       
  47 H47           -5.8179    -2.6130    -9.4775 H       
  48 H48           -4.8610    -3.7826    -8.5370 H       
  49 H49            3.7153    -1.3137    -0.6466 H       
  50 H50            4.4550     0.2387    -0.1870 H       
  51 H51            3.4830    -1.9155     1.7559 H       
  52 H52            5.6045    -2.7316     0.9749 H       
  53 H53            6.2427    -1.0727     0.7117 H       
  54 H54            5.7303    -2.5241     3.3706 H       
  55 H55            7.1527    -1.5370     2.8947 H       
  56 H56            4.9928    -0.5342     4.3477 H       
  57 H57            6.0498     0.4698     3.3183 H       
@<TRIPOS>BOND
   1    1    6 ar
   2    1    7 1
   3    1    2 ar
   4    2    3 ar
   5    2   24 1
   6    3    4 ar
   7    3   25 1
   8    4    5 ar
   9    4   11 1
  10    5    6 ar
  11    5   33 1
  12    6   10 1
  13    7    8 1
  14    8    9 1
  15    8   34 1
  16    8   35 1
  17    9   10 am
  18    9   27 1
  19   10   18 2
  20   11   12 1
  21   11   36 1
  22   11   37 1
  23   12   14 ar
  24   12   13 ar
  25   13   17 ar
  26   13   38 1
  27   14   15 ar
  28   14   39 1
  29   15   16 ar
  30   16   17 ar
  31   16   19 1
  32   17   40 1
  33   19   23 1
  34   19   20 2
  35   20   21 1
  36   20   41 1
  37   21   22 1
  38   21   26 1
  39   22   23 2
  40   23   42 1
  41   25   43 1
  42   25   44 1
  43   25   45 1
  44   26   46 1
  45   26   47 1
  46   26   48 1
  47   27   28 1
  48   27   49 1
  49   27   50 1
  50   28   32 1
  51   28   29 1
  52   28   51 1
  53   29   30 1
  54   29   52 1
  55   29   53 1
  56   30   31 1
  57   30   54 1
  58   30   55 1
  59   31   32 1
  60   31   56 1
  61   31   57 1

#	End of record

