#	Name: ASD00731046
#	Creating user name:	WinNT
#	Creation time:	15. 06. 2019 18:37

#	Modifying user name:	WinNT
#	Modification time:	15. 06. 2019 18:37

#	Program:	/corina/corina34_cracker 3.40 0067  02.08.2006

@<TRIPOS>MOLECULE
ASD00731046
 234  236    0    0    0
SMALL
NO_CHARGES


@<TRIPOS>ATOM
   1 C1            -0.0426     1.2366    -0.4147 C.2     
   2 O2            -0.1968     0.2413    -1.0903 O.2     
   3 N3             2.3421     1.0083    -0.8021 N.am    
   4 C4             1.2869     1.9461    -0.4106 C.3     
   5 C5             1.2463     3.1109    -1.4018 C.3     
   6 C6             2.5958     3.8319    -1.3971 C.3     
   7 O7             0.9779     2.6112    -2.7134 O.3     
   8 C8            -3.4203     2.1868     0.0096 C.2     
   9 O9            -3.0767     3.3487    -0.0440 O.2     
  10 N10           -1.0620     1.7112     0.3283 N.am    
  11 C11           -2.3916     1.1057     0.2196 C.3     
  12 C12           -2.7105     0.3412     1.5059 C.3     
  13 C13           -1.7218    -0.7826     1.6806 C.2     
  14 O14           -0.8224    -0.9249     0.8865 O.2     
  15 O15           -1.8403    -1.6255     2.7185 O.3     
  16 C16           -7.0644     2.4310     0.1637 C.2     
  17 O17           -7.1749     1.3187     0.6345 O.2     
  18 N18           -4.7222     1.8625    -0.1186 N.am    
  19 C19           -5.7222     2.9134    -0.3228 C.3     
  20 C20           -5.8108     3.2507    -1.8125 C.3     
  21 C21           -4.4854     3.8573    -2.2777 C.3     
  22 C22           -4.5739     4.1946    -3.7675 C.3     
  23 N23           -3.3049     4.7753    -4.2129 N.pl3   
  24 C24           -3.1472     5.1594    -5.5236 C.2     
  25 N25           -4.1267     5.0068    -6.3698 N.2     
  26 N26           -1.9562     5.7044    -5.9416 N.pl3   
  27 C27          -10.5403     3.5118    -0.1728 C.2     
  28 O28          -10.2574     4.3520    -1.0004 O.2     
  29 N29           -8.1422     3.2354     0.0755 N.am    
  30 C30           -9.4470     2.7664     0.5484 C.3     
  31 C31           -9.5649     3.0183     2.0529 C.3     
  32 C32          -14.1418     3.9759     0.2475 C.2     
  33 O33          -14.1424     3.4292     1.3301 O.2     
  34 N34          -11.8325     3.2446     0.1018 N.am    
  35 C35          -12.8953     3.9692    -0.5993 C.3     
  36 C36          -13.1886     3.2795    -1.9332 C.3     
  37 C37          -11.9615     3.3824    -2.8412 C.3     
  38 C38          -12.2548     2.6927    -4.1751 C.3     
  39 N39          -11.0798     2.7912    -5.0445 N.pl3   
  40 C40          -11.1081     2.2398    -6.3036 C.2     
  41 N41          -10.0628     2.3275    -7.0772 N.2     
  42 N42          -12.2392     1.5960    -6.7468 N.pl3   
  43 C43          -17.6760     4.7597    -0.2607 C.2     
  44 O44          -17.5384     4.8612    -1.4614 O.2     
  45 N45          -15.2561     4.5893    -0.1982 N.am    
  46 C46          -16.4679     4.5958     0.6250 C.3     
  47 C47          -16.4029     5.7570     1.6191 C.3     
  48 C48          -15.2498     5.5265     2.5980 C.3     
  49 C49          -15.1848     6.6878     3.5920 C.3     
  50 C50          -14.0317     6.4573     4.5709 C.3     
  51 N51          -13.9694     7.5723     5.5253 N.3     
  52 C52          -21.2108     5.5607     0.2153 C.2     
  53 O53          -21.0488     5.8338     1.3858 O.2     
  54 N54          -18.9095     4.7936     0.2815 N.am    
  55 C55          -20.0839     4.9530    -0.5796 C.3     
  56 C56          -20.5153     3.5851    -1.1122 C.3     
  57 C57          -19.4367     3.0317    -2.0075 C.2     
  58 C58          -19.3768     3.1369    -3.3444 C.2     
  59 N59          -18.2530     2.5117    -3.8117 N.pl3   
  60 C60          -17.5442     1.9752    -2.7602 C.ar    
  61 C61          -16.3577     1.2547    -2.6736 C.ar    
  62 C62          -15.8932     0.8466    -1.4423 C.ar    
  63 C63          -16.5976     1.1472    -0.2848 C.ar    
  64 C64          -17.7658     1.8537    -0.3468 C.ar    
  65 C65          -18.2515     2.2824    -1.5833 C.ar    
  66 C66          -24.8118     6.0098    -0.2256 C.2     
  67 O67          -24.8336     5.3130    -1.2180 O.2     
  68 N68          -22.3987     5.8007    -0.3745 N.am    
  69 C69          -23.4941     6.3915     0.3982 C.3     
  70 C70          -23.3531     7.9150     0.4003 C.3     
  71 C71          -22.0752     8.3078     1.1442 C.3     
  72 S72          -21.9080    10.1141     1.1467 S.3     
  73 C73          -20.3621    10.3796     2.0580 C.3     
  74 C74          -28.2881     7.1016     0.0686 C.2     
  75 O75          -27.9896     8.0518     0.7606 O.2     
  76 N76          -25.9659     6.4429     0.3192 N.am    
  77 C77          -27.2468     6.0719    -0.2872 C.3     
  78 C78          -27.6827     4.7029     0.2390 C.3     
  79 C79          -26.7046     3.6530    -0.2215 C.ar    
  80 C80          -25.6046     3.3444     0.5566 C.ar    
  81 C81          -24.7074     2.3814     0.1342 C.ar    
  82 C82          -24.9104     1.7267    -1.0663 C.ar    
  83 C83          -26.0109     2.0347    -1.8440 C.ar    
  84 C84          -26.9105     2.9946    -1.4195 C.ar    
  85 C85          -31.1606     7.6347     1.3065 C.2     
  86 O86          -30.7799     6.6612     1.9125 O.2     
  87 N87          -29.5510     6.9665    -0.3822 N.am    
  88 C88          -30.5632     7.9676    -0.0364 C.3     
  89 C89          -31.6644     7.9674    -1.0986 C.3     
  90 C90          -32.6556     9.0955    -0.8057 C.3     
  91 C91          -33.6857     9.1752    -1.9342 C.3     
  92 C92          -32.3976     6.6248    -1.0729 C.3     
  93 O93          -32.1156     8.4197     1.8294 O.3     
  94 C94            3.6129     1.2203    -0.4063 C.2     
  95 O95            3.8828     2.1874     0.2739 O.2     
  96 C96           21.7786    -3.3198     0.3569 C.3     
  97 C97           20.6765    -2.3404     0.7657 C.3     
  98 C98           19.3386    -2.8091     0.1903 C.3     
  99 C99           18.2365    -1.8296     0.5991 C.3     
 100 C100          16.8985    -2.2983     0.0237 C.3     
 101 C101          15.7965    -1.3189     0.4326 C.3     
 102 C102          14.4585    -1.7875    -0.1428 C.3     
 103 C103          13.3564    -0.8081     0.2660 C.3     
 104 C104          12.0185    -1.2767    -0.3094 C.3     
 105 C105          10.9164    -0.2973     0.0995 C.3     
 106 C106           9.5784    -0.7659    -0.4759 C.3     
 107 C107           8.4764     0.2135    -0.0671 C.3     
 108 C108           7.1384    -0.2552    -0.6425 C.3     
 109 C109           6.0363     0.7243    -0.2336 C.3     
 110 C110           4.6984     0.2556    -0.8090 C.3     
 111 H111           2.1262     0.2348    -1.3462 H       
 112 H112           1.4923     2.3273     0.5897 H       
 113 H113           0.4607     3.8083    -1.1110 H       
 114 H114           3.3633     3.1690    -1.7963 H       
 115 H115           2.5315     4.7273    -2.0153 H       
 116 H116           2.8538     4.1131    -0.3761 H       
 117 H117           0.1363     2.1413    -2.7907 H       
 118 H118          -0.9154     2.4537     0.9349 H       
 119 H119          -2.4096     0.4179    -0.6258 H       
 120 H120          -2.6446     1.0188     2.3572 H       
 121 H121          -3.7189    -0.0683     1.4448 H       
 122 H122          -1.1824    -2.3307     2.7887 H       
 123 H123          -4.9970     0.9332    -0.0758 H       
 124 H124          -5.4323     3.8040     0.2348 H       
 125 H125          -6.0133     2.3420    -2.3794 H       
 126 H126          -6.6155     3.9676    -1.9755 H       
 127 H127          -4.2828     4.7660    -1.7109 H       
 128 H128          -3.6807     3.1404    -2.1147 H       
 129 H129          -4.7765     3.2859    -4.3343 H       
 130 H130          -5.3787     4.9115    -3.9305 H       
 131 H131          -2.5759     4.8889    -3.5832 H       
 132 H132          -4.0154     5.2777    -7.2945 H       
 133 H133          -1.2273     5.8180    -5.3119 H       
 134 H134          -1.8450     5.9754    -6.8663 H       
 135 H135          -8.0539     4.1250    -0.3011 H       
 136 H136          -9.5431     1.6989     0.3501 H       
 137 H137          -8.7741     2.4791     2.5746 H       
 138 H138          -9.4688     4.0857     2.2513 H       
 139 H139         -10.5357     2.6693     2.4048 H       
 140 H140         -12.0587     2.5726     0.7637 H       
 141 H141         -12.5755     4.9949    -0.7833 H       
 142 H142         -13.4222     2.2297    -1.7557 H       
 143 H143         -14.0381     3.7645    -2.4140 H       
 144 H144         -11.7278     4.4322    -3.0187 H       
 145 H145         -11.1120     2.8973    -2.3604 H       
 146 H146         -12.4884     1.6429    -3.9976 H       
 147 H147         -13.1042     3.1777    -4.6559 H       
 148 H148         -10.2818     3.2455    -4.7319 H       
 149 H149         -10.0828     1.9385    -7.9655 H       
 150 H150         -13.0171     1.5307    -6.1711 H       
 151 H151         -12.2592     1.2069    -7.6351 H       
 152 H152         -15.2556     5.0265    -1.0641 H       
 153 H153         -16.5419     3.6547     1.1700 H       
 154 H154         -16.2397     6.6894     1.0785 H       
 155 H155         -17.3413     5.8162     2.1705 H       
 156 H156         -15.4130     4.5942     3.1385 H       
 157 H157         -14.3114     5.4674     2.0465 H       
 158 H158         -15.0217     7.6201     3.0514 H       
 159 H159         -16.1232     6.7470     4.1434 H       
 160 H160         -14.1949     5.5250     5.1115 H       
 161 H161         -13.0934     6.3982     4.0194 H       
 162 H162         -14.8502     7.6887     6.0034 H       
 163 H163         -13.2152     7.4434     6.1831 H       
 164 H164         -19.0195     4.7125     1.2418 H       
 165 H165         -19.8354     5.6066    -1.4158 H       
 166 H166         -20.6782     2.9047    -0.2764 H       
 167 H167         -21.4397     3.6912    -1.6799 H       
 168 H168         -20.1076     3.6402    -3.9600 H       
 169 H169         -17.9941     2.4549    -4.7448 H       
 170 H170         -15.8025     1.0155    -3.5686 H       
 171 H171         -14.9718     0.2869    -1.3772 H       
 172 H172         -16.2197     0.8199     0.6725 H       
 173 H173         -18.3087     2.0836     0.5580 H       
 174 H174         -22.5282     5.5823    -1.3107 H       
 175 H175         -23.4566     6.0217     1.4229 H       
 176 H176         -23.3014     8.2765    -0.6267 H       
 177 H177         -24.2148     8.3589     0.8988 H       
 178 H178         -22.1269     7.9463     2.1712 H       
 179 H179         -21.2135     7.8639     0.6457 H       
 180 H180         -20.1575    11.4482     2.1228 H       
 181 H181         -20.4567     9.9662     3.0621 H       
 182 H182         -19.5433     9.8838     1.5366 H       
 183 H183         -25.9484     7.0002     1.1129 H       
 184 H184         -27.1362     6.0263    -1.3706 H       
 185 H185         -27.7075     4.7235     1.3285 H       
 186 H186         -28.6760     4.4664    -0.1426 H       
 187 H187         -25.4460     3.8559     1.4945 H       
 188 H188         -23.8476     2.1407     0.7418 H       
 189 H189         -24.2091     0.9748    -1.3966 H       
 190 H190         -26.1694     1.5234    -2.7820 H       
 191 H191         -27.7723     3.2326    -2.0253 H       
 192 H192         -29.7897     6.2065    -0.9357 H       
 193 H193         -30.0997     8.9532     0.0064 H       
 194 H194         -31.2204     8.1202    -2.0823 H       
 195 H195         -33.1646     8.8962     0.1374 H       
 196 H196         -32.1190    10.0417    -0.7361 H       
 197 H197         -34.2223     8.2290    -2.0039 H       
 198 H198         -34.3918     9.9788    -1.7256 H       
 199 H199         -33.1767     9.3745    -2.8773 H       
 200 H200         -33.1821     6.6247    -1.8296 H       
 201 H201         -31.6914     5.8211    -1.2816 H       
 202 H202         -32.8416     6.4720    -0.0892 H       
 203 H203         -32.4684     8.1658     2.6932 H       
 204 H204          21.5446    -4.3119     0.7430 H       
 205 H205          21.8445    -3.3593    -0.7304 H       
 206 H206          22.7318    -2.9860     0.7668 H       
 207 H207          20.6106    -2.3009     1.8530 H       
 208 H208          20.9106    -1.3483     0.3796 H       
 209 H209          19.4045    -2.8486    -0.8970 H       
 210 H210          19.1045    -3.8012     0.5764 H       
 211 H211          18.1706    -1.7901     1.6864 H       
 212 H212          18.4705    -0.8375     0.2130 H       
 213 H213          16.9645    -2.3378    -1.0635 H       
 214 H214          16.6645    -3.2904     0.4098 H       
 215 H215          15.7305    -1.2794     1.5199 H       
 216 H216          16.0305    -0.3268     0.0465 H       
 217 H217          14.5244    -1.8270    -1.2301 H       
 218 H218          14.2245    -2.7796     0.2433 H       
 219 H219          13.2905    -0.7686     1.3533 H       
 220 H220          13.5905     0.1840    -0.1201 H       
 221 H221          12.0844    -1.3162    -1.3966 H       
 222 H222          11.7844    -2.2688     0.0767 H       
 223 H223          10.8505    -0.2578     1.1868 H       
 224 H224          11.1504     0.6948    -0.2866 H       
 225 H225           9.6444    -0.8055    -1.5632 H       
 226 H226           9.3444    -1.7580    -0.0898 H       
 227 H227           8.4104     0.2530     1.0202 H       
 228 H228           8.7104     1.2056    -0.4532 H       
 229 H229           7.2043    -0.2947    -1.7298 H       
 230 H230           6.9044    -1.2473    -0.2564 H       
 231 H231           5.9704     0.7638     0.8536 H       
 232 H232           6.2704     1.7163    -0.6197 H       
 233 H233           4.4643    -0.7365    -0.4229 H       
 234 H234           4.7643     0.2161    -1.8963 H       
@<TRIPOS>BOND
   1    1    2 2
   2    1    4 1
   3    1   10 am
   4    3   94 am
   5    3    4 1
   6    3  111 1
   7    4    5 1
   8    4  112 1
   9    5    6 1
  10    5    7 1
  11    5  113 1
  12    6  114 1
  13    6  115 1
  14    6  116 1
  15    7  117 1
  16    8    9 2
  17    8   11 1
  18    8   18 am
  19   10   11 1
  20   10  118 1
  21   11   12 1
  22   11  119 1
  23   12   13 1
  24   12  120 1
  25   12  121 1
  26   13   14 2
  27   13   15 1
  28   15  122 1
  29   16   17 2
  30   16   19 1
  31   16   29 am
  32   18   19 1
  33   18  123 1
  34   19   20 1
  35   19  124 1
  36   20   21 1
  37   20  125 1
  38   20  126 1
  39   21   22 1
  40   21  127 1
  41   21  128 1
  42   22   23 1
  43   22  129 1
  44   22  130 1
  45   23   24 1
  46   23  131 1
  47   24   25 2
  48   24   26 1
  49   25  132 1
  50   26  133 1
  51   26  134 1
  52   27   28 2
  53   27   30 1
  54   27   34 am
  55   29   30 1
  56   29  135 1
  57   30   31 1
  58   30  136 1
  59   31  137 1
  60   31  138 1
  61   31  139 1
  62   32   33 2
  63   32   35 1
  64   32   45 am
  65   34   35 1
  66   34  140 1
  67   35   36 1
  68   35  141 1
  69   36   37 1
  70   36  142 1
  71   36  143 1
  72   37   38 1
  73   37  144 1
  74   37  145 1
  75   38   39 1
  76   38  146 1
  77   38  147 1
  78   39   40 1
  79   39  148 1
  80   40   41 2
  81   40   42 1
  82   41  149 1
  83   42  150 1
  84   42  151 1
  85   43   44 2
  86   43   46 1
  87   43   54 am
  88   45   46 1
  89   45  152 1
  90   46   47 1
  91   46  153 1
  92   47   48 1
  93   47  154 1
  94   47  155 1
  95   48   49 1
  96   48  156 1
  97   48  157 1
  98   49   50 1
  99   49  158 1
 100   49  159 1
 101   50   51 1
 102   50  160 1
 103   50  161 1
 104   51  162 1
 105   51  163 1
 106   52   53 2
 107   52   55 1
 108   52   68 am
 109   54   55 1
 110   54  164 1
 111   55   56 1
 112   55  165 1
 113   56   57 1
 114   56  166 1
 115   56  167 1
 116   57   58 2
 117   57   65 1
 118   58   59 1
 119   58  168 1
 120   59   60 1
 121   59  169 1
 122   60   61 ar
 123   60   65 ar
 124   61   62 ar
 125   61  170 1
 126   62   63 ar
 127   62  171 1
 128   63   64 ar
 129   63  172 1
 130   64   65 ar
 131   64  173 1
 132   66   67 2
 133   66   69 1
 134   66   76 am
 135   68   69 1
 136   68  174 1
 137   69   70 1
 138   69  175 1
 139   70   71 1
 140   70  176 1
 141   70  177 1
 142   71   72 1
 143   71  178 1
 144   71  179 1
 145   72   73 1
 146   73  180 1
 147   73  181 1
 148   73  182 1
 149   74   75 2
 150   74   77 1
 151   74   87 am
 152   76   77 1
 153   76  183 1
 154   77   78 1
 155   77  184 1
 156   78   79 1
 157   78  185 1
 158   78  186 1
 159   79   80 ar
 160   79   84 ar
 161   80   81 ar
 162   80  187 1
 163   81   82 ar
 164   81  188 1
 165   82   83 ar
 166   82  189 1
 167   83   84 ar
 168   83  190 1
 169   84  191 1
 170   85   86 2
 171   85   88 1
 172   85   93 1
 173   87   88 1
 174   87  192 1
 175   88   89 1
 176   88  193 1
 177   89   90 1
 178   89   92 1
 179   89  194 1
 180   90   91 1
 181   90  195 1
 182   90  196 1
 183   91  197 1
 184   91  198 1
 185   91  199 1
 186   92  200 1
 187   92  201 1
 188   92  202 1
 189   93  203 1
 190   94   95 2
 191   94  110 1
 192   96   97 1
 193   96  204 1
 194   96  205 1
 195   96  206 1
 196   97   98 1
 197   97  207 1
 198   97  208 1
 199   98   99 1
 200   98  209 1
 201   98  210 1
 202   99  100 1
 203   99  211 1
 204   99  212 1
 205  100  101 1
 206  100  213 1
 207  100  214 1
 208  101  102 1
 209  101  215 1
 210  101  216 1
 211  102  103 1
 212  102  217 1
 213  102  218 1
 214  103  104 1
 215  103  219 1
 216  103  220 1
 217  104  105 1
 218  104  221 1
 219  104  222 1
 220  105  106 1
 221  105  223 1
 222  105  224 1
 223  106  107 1
 224  106  225 1
 225  106  226 1
 226  107  108 1
 227  107  227 1
 228  107  228 1
 229  108  109 1
 230  108  229 1
 231  108  230 1
 232  109  110 1
 233  109  231 1
 234  109  232 1
 235  110  233 1
 236  110  234 1

#	End of record

