#	Name: ASD02560018
#	Creating user name:	WinNT
#	Creation time:	15. 06. 2019 20:24

#	Modifying user name:	WinNT
#	Modification time:	15. 06. 2019 20:24

#	Program:	/corina/corina34_cracker 3.40 0067  02.08.2006

@<TRIPOS>MOLECULE
ASD02560018
  41   43    0    0    0
SMALL
NO_CHARGES


@<TRIPOS>ATOM
   1 C1            -1.1928    -0.4553    -0.2876 C.ar    
   2 C2            -0.7812    -1.7675    -0.4183 C.ar    
   3 C3             0.5556    -2.0944    -0.2995 C.ar    
   4 C4             1.5184    -1.1027    -0.0975 C.ar    
   5 C5             1.1150     0.1990    -0.0361 C.ar    
   6 C6            -0.2458     0.5276    -0.0455 C.ar    
   7 C7             2.9411    -1.5974     0.0552 C.3     
   8 N8             3.8961    -0.6703    -0.5196 N.3     
   9 C9             4.0500     0.5927     0.1364 C.3     
  10 C10            3.1253     1.6540    -0.3974 C.3     
  11 N11            1.7683     1.4566     0.0950 N.am    
  12 C12            0.8923     2.3234     0.5990 C.2     
  13 N13           -0.3503     1.8617     0.3472 N.am    
  14 S14            1.2761     3.7729     1.4251 S.2     
  15 Cl15           1.0446    -3.7569    -0.4017 Cl      
  16 C16            5.4945     1.0654    -0.0397 C.3     
  17 C17            5.1983    -1.3176    -0.7277 C.3     
  18 C18            5.0479    -2.4408    -1.7212 C.2     
  19 C19            5.4435    -3.6496    -1.4079 C.2     
  20 C20            6.1619    -3.8936    -0.1058 C.3     
  21 C21            5.1803    -4.7964    -2.3496 C.3     
  22 H22           -2.2378    -0.1980    -0.3774 H       
  23 H23           -1.5084    -2.5417    -0.6140 H       
  24 H24            3.1617    -1.7233     1.1152 H       
  25 H25            3.0375    -2.5618    -0.4435 H       
  26 H26            3.8545     0.4608     1.2006 H       
  27 H27            3.4827     2.6335    -0.0797 H       
  28 H28            3.1211     1.6109    -1.4865 H       
  29 H29           -1.1731     2.3694     0.4257 H       
  30 H30            5.7294     1.1277    -1.1022 H       
  31 H31            5.6135     2.0479     0.4171 H       
  32 H32            6.1696     0.3572     0.4407 H       
  33 H33            5.9102    -0.5866    -1.1109 H       
  34 H34            5.5613    -1.7165     0.2195 H       
  35 H35            4.6139    -2.2491    -2.6914 H       
  36 H36            5.4318    -4.0396     0.6902 H       
  37 H37            6.7844    -4.7839    -0.1955 H       
  38 H38            6.7892    -3.0339     0.1297 H       
  39 H39            4.6548    -4.4292    -3.2312 H       
  40 H40            6.1275    -5.2436    -2.6512 H       
  41 H41            4.5683    -5.5457    -1.8476 H       
@<TRIPOS>BOND
   1    1    2 ar
   2    1    6 ar
   3    1   22 1
   4    2    3 ar
   5    2   23 1
   6    3    4 ar
   7    3   15 1
   8    4    5 ar
   9    4    7 1
  10    5    6 ar
  11    5   11 1
  12    6   13 1
  13    7    8 1
  14    7   24 1
  15    7   25 1
  16    8    9 1
  17    8   17 1
  18    9   10 1
  19    9   16 1
  20    9   26 1
  21   10   11 1
  22   10   27 1
  23   10   28 1
  24   11   12 am
  25   12   13 am
  26   12   14 2
  27   13   29 1
  28   16   30 1
  29   16   31 1
  30   16   32 1
  31   17   18 1
  32   17   33 1
  33   17   34 1
  34   18   19 2
  35   18   35 1
  36   19   20 1
  37   19   21 1
  38   20   36 1
  39   20   37 1
  40   20   38 1
  41   21   39 1
  42   21   40 1
  43   21   41 1

#	End of record

