#	Name: ASD01151034
#	Creating user name:	WinNT
#	Creation time:	15. 06. 2019 19:05

#	Modifying user name:	WinNT
#	Modification time:	15. 06. 2019 19:05

#	Program:	/corina/corina34_cracker 3.40 0067  02.08.2006

@<TRIPOS>MOLECULE
ASD01151034
  29   29    0    0    0
SMALL
NO_CHARGES


@<TRIPOS>ATOM
   1 C1            -0.0187     1.5258     0.0104 C.3     
   2 C2             0.0021    -0.0041     0.0020 C.3     
   3 C3             0.7421    -0.5109     1.2415 C.3     
   4 C4             0.7628    -2.0407     1.2331 C.3     
   5 C5             1.4790    -2.5342    -0.0257 C.3     
   6 C6             0.7390    -2.0273    -1.2652 C.3     
   7 C7             0.7182    -0.4975    -1.2568 C.3     
   8 O8             1.4078    -2.4882    -2.4409 O.3     
   9 C9             1.4994    -4.0410    -0.0340 C.2     
  10 C10            2.6426    -4.6805    -0.0483 C.2     
  11 C11            0.2047    -4.8122    -0.0257 C.3     
  12 H12            1.0039     1.9031     0.0027 H       
  13 H13           -0.5459     1.8868    -0.8726 H       
  14 H14           -0.5289     1.8773     0.9072 H       
  15 H15           -1.0205    -0.3814     0.0098 H       
  16 H16            1.7647    -0.1336     1.2338 H       
  17 H17            0.2319    -0.1594     2.1383 H       
  18 H18            1.2900    -2.4018     2.1162 H       
  19 H19           -0.2598    -2.4180     1.2409 H       
  20 H20            2.5015    -2.1569    -0.0334 H       
  21 H21           -0.2836    -2.4046    -1.2575 H       
  22 H22            0.1910    -0.1364    -2.1398 H       
  23 H23            1.7408    -0.1202    -1.2645 H       
  24 H24            0.9926    -2.2039    -3.2666 H       
  25 H25            2.6573    -5.7604    -0.0542 H       
  26 H26            3.5705    -4.1278    -0.0542 H       
  27 H27           -0.6333    -4.1152    -0.0140 H       
  28 H28            0.1470    -5.4348    -0.9186 H       
  29 H29            0.1640    -5.4443     0.8613 H       
@<TRIPOS>BOND
   1    1    2 1
   2    1   12 1
   3    1   13 1
   4    1   14 1
   5    2    3 1
   6    2    7 1
   7    2   15 1
   8    3    4 1
   9    3   16 1
  10    3   17 1
  11    4    5 1
  12    4   18 1
  13    4   19 1
  14    5    6 1
  15    5    9 1
  16    5   20 1
  17    6    7 1
  18    6    8 1
  19    6   21 1
  20    7   22 1
  21    7   23 1
  22    8   24 1
  23    9   10 2
  24    9   11 1
  25   10   25 1
  26   10   26 1
  27   11   27 1
  28   11   28 1
  29   11   29 1

#	End of record

