#	Name: ASD00069374
#	Creating user name:	WinNT
#	Creation time:	15. 06. 2019 18:29

#	Modifying user name:	WinNT
#	Modification time:	15. 06. 2019 18:29

#	Program:	/corina/corina34_cracker 3.40 0067  02.08.2006

@<TRIPOS>MOLECULE
ASD00069374
  88   93    0    0    0
SMALL
NO_CHARGES


@<TRIPOS>ATOM
   1 C1             0.1109     1.6934     0.4366 C.2     
   2 C2             0.0668     0.3166     0.4425 C.2     
   3 N3             1.4120     2.0440     0.3401 N.pl3   
   4 C4             2.1444     0.8904     0.2884 C.2     
   5 N5             1.3248    -0.1343     0.3507 N.2     
   6 C6            -1.1552    -0.5175     0.5346 C.ar    
   7 N7            -2.3577     0.0522     0.6225 N.ar    
   8 C8            -1.0640    -1.9080     0.5247 C.ar    
   9 C9            -2.2404    -2.6495     0.6135 C.ar    
  10 N10           -3.4035    -2.0102     0.7042 N.ar    
  11 C11           -3.4530    -0.6865     0.7051 C.ar    
  12 C12            3.6128     0.8099     0.1794 C.2     
  13 N13            4.2205    -0.3924     0.1370 N.am    
  14 O14            4.2755     1.8283     0.1277 O.2     
  15 C15            5.6029    -0.4712    -0.0726 C.ar    
  16 C16            6.3389    -1.5072     0.5010 C.ar    
  17 C17            6.2427     0.4780    -0.8564 C.ar    
  18 C18            7.6072     0.3989    -1.0630 C.ar    
  19 C19            8.3394    -0.6249    -0.4906 C.ar    
  20 C20            7.7092    -1.5797     0.2886 C.ar    
  21 N21            5.6981    -2.4715     1.2894 N.3     
  22 C22            6.1543    -2.3991     2.6844 C.3     
  23 C23            5.3750    -3.4121     3.5264 C.3     
  24 N24            5.5782    -4.7604     2.9782 N.3     
  25 C25            5.1220    -4.8327     1.5831 C.3     
  26 C26            5.9013    -3.8198     0.7411 C.3     
  27 F27            8.4276    -2.5786     0.8464 F       
  28 N28           -2.1993    -4.0349     0.6070 N.3     
  29 C29           -1.3333    -4.5407     1.6796 C.3     
  30 C30           -1.7732    -4.5426    -0.7034 C.3     
  31 C31           -1.8790    -6.0692    -0.7194 C.3     
  32 C32           -0.9926    -6.6490     0.3863 C.3     
  33 C33           -1.4260    -6.0673     1.7347 C.3     
  34 C34           -0.5206    -6.5874     2.8214 C.2     
  35 N35           -0.4361    -7.9127     3.0512 N.am    
  36 O36            0.1319    -5.8134     3.4892 O.2     
  37 C37            0.4440    -8.4184     4.1076 C.3     
  38 C38           -0.0661    -9.7781     4.5890 C.3     
  39 C39            1.8639    -8.5716     3.5586 C.3     
  40 C40            2.7830    -9.0997     4.6618 C.3     
  41 C41            2.2729   -10.4594     5.1433 C.3     
  42 C42            0.8530   -10.3062     5.6923 C.3     
  43 N43           -4.6827    -0.0588     0.8015 N.pl3   
  44 C44           -4.7602     1.4042     0.8043 C.3     
  45 C45           -2.6730    -3.9577    -1.7939 C.3     
  46 H46           -0.7336     2.3643     0.4936 H       
  47 H47            1.7624     2.9480     0.3123 H       
  48 H48           -0.1050    -2.3990     0.4497 H       
  49 H49            3.7003    -1.2031     0.2518 H       
  50 H50            5.6743     1.2789    -1.3056 H       
  51 H51            8.1028     1.1389    -1.6739 H       
  52 H52            9.4052    -0.6820    -0.6553 H       
  53 H53            7.2186    -2.6295     2.7314 H       
  54 H54            5.9818    -1.3950     3.0718 H       
  55 H55            5.7319    -3.3805     4.5559 H       
  56 H56            4.3135    -3.1656     3.5016 H       
  57 H57            6.5440    -5.0413     3.0578 H       
  58 H58            5.2945    -5.8369     1.1957 H       
  59 H59            4.0576    -4.6024     1.5362 H       
  60 H60            5.5443    -3.8513    -0.2883 H       
  61 H61            6.9628    -4.0663     0.7660 H       
  62 H62           -0.3023    -4.2463     1.4833 H       
  63 H63           -1.6548    -4.1227     2.6336 H       
  64 H64           -0.7402    -4.2482    -0.8885 H       
  65 H65           -2.9143    -6.3640    -0.5480 H       
  66 H66           -1.5479    -6.4468    -1.6868 H       
  67 H67           -1.0983    -7.7337     0.4067 H       
  68 H68            0.0478    -6.3871     0.1940 H       
  69 H69           -2.4541    -6.3621     1.9447 H       
  70 H70           -0.9580    -8.5318     2.5171 H       
  71 H71            0.4507    -7.7167     4.9417 H       
  72 H72           -1.0777    -9.6689     4.9802 H       
  73 H73           -0.0729   -10.4798     3.7549 H       
  74 H74            1.8571    -9.2733     2.7245 H       
  75 H75            2.2273    -7.6029     3.2156 H       
  76 H76            3.7946    -9.2088     4.2707 H       
  77 H77            2.7898    -8.3980     5.4959 H       
  78 H78            2.2662   -11.1611     4.3092 H       
  79 H79            2.9277   -10.8356     5.9293 H       
  80 H80            0.8597    -9.6045     6.5264 H       
  81 H81            0.4896   -11.2749     6.0353 H       
  82 H82           -5.4933    -0.5875     0.8672 H       
  83 H83           -4.1973     1.7962     1.6515 H       
  84 H84           -4.3385     1.7921    -0.1229 H       
  85 H85           -5.8023     1.7127     0.8866 H       
  86 H86           -2.5970    -2.8704    -1.7832 H       
  87 H87           -2.3569    -4.3345    -2.7666 H       
  88 H88           -3.7062    -4.2516    -1.6087 H       
@<TRIPOS>BOND
   1    1    2 2
   2    1    3 1
   3    1   46 1
   4    2    6 1
   5    2    5 1
   6    3    4 1
   7    3   47 1
   8    4    5 2
   9    4   12 1
  10    6    7 ar
  11    6    8 ar
  12    7   11 ar
  13    8    9 ar
  14    8   48 1
  15    9   10 ar
  16    9   28 1
  17   10   11 ar
  18   11   43 1
  19   12   13 am
  20   12   14 2
  21   13   15 1
  22   13   49 1
  23   15   16 ar
  24   15   17 ar
  25   16   21 1
  26   16   20 ar
  27   17   18 ar
  28   17   50 1
  29   18   19 ar
  30   18   51 1
  31   19   20 ar
  32   19   52 1
  33   20   27 1
  34   21   22 1
  35   21   26 1
  36   22   23 1
  37   22   53 1
  38   22   54 1
  39   23   24 1
  40   23   55 1
  41   23   56 1
  42   24   25 1
  43   24   57 1
  44   25   26 1
  45   25   58 1
  46   25   59 1
  47   26   60 1
  48   26   61 1
  49   28   29 1
  50   28   30 1
  51   29   33 1
  52   29   62 1
  53   29   63 1
  54   30   31 1
  55   30   45 1
  56   30   64 1
  57   31   32 1
  58   31   65 1
  59   31   66 1
  60   32   33 1
  61   32   67 1
  62   32   68 1
  63   33   34 1
  64   33   69 1
  65   34   35 am
  66   34   36 2
  67   35   37 1
  68   35   70 1
  69   37   38 1
  70   37   39 1
  71   37   71 1
  72   38   42 1
  73   38   72 1
  74   38   73 1
  75   39   40 1
  76   39   74 1
  77   39   75 1
  78   40   41 1
  79   40   76 1
  80   40   77 1
  81   41   42 1
  82   41   78 1
  83   41   79 1
  84   42   80 1
  85   42   81 1
  86   43   44 1
  87   43   82 1
  88   44   83 1
  89   44   84 1
  90   44   85 1
  91   45   86 1
  92   45   87 1
  93   45   88 1

#	End of record

