#	Name: ASD01814447
#	Creating user name:	WinNT
#	Creation time:	15. 06. 2019 19:32

#	Modifying user name:	WinNT
#	Modification time:	15. 06. 2019 19:32

#	Program:	/corina/corina34_cracker 3.40 0067  02.08.2006

@<TRIPOS>MOLECULE
ASD01814447
  61   66    0    0    0
SMALL
NO_CHARGES


@<TRIPOS>ATOM
   1 C1            -0.0202     1.3735     0.1449 C.ar    
   2 C2             0.0112    -0.0082     0.2494 C.ar    
   3 C3             1.2040    -0.6965     0.1510 C.ar    
   4 C4             2.3904    -0.0008    -0.0552 C.ar    
   5 C5             2.3524     1.4029    -0.1606 C.ar    
   6 C6             1.1465     2.0829    -0.0599 C.ar    
   7 N7             3.5988    -0.6599    -0.1574 N.pl3   
   8 N8             4.7190    -0.0649    -0.3469 N.2     
   9 C9             4.8420     1.2320    -0.4644 C.2     
  10 C10            3.6371     2.0932    -0.3790 C.2     
  11 C11            5.9529     2.1619    -0.6794 C.2     
  12 N12            5.4093     3.3977    -0.7074 N.am    
  13 N13            4.0259     3.3242    -0.5255 N.2     
  14 C14            3.6020    -2.1204    -0.0426 C.3     
  15 C15            5.0125    -2.6322    -0.1822 C.ar    
  16 C16            5.8185    -2.7785     0.9376 C.ar    
  17 C17            7.1080    -3.2522     0.7664 C.ar    
  18 C18            7.5496    -3.5639    -0.5174 C.ar    
  19 N19            6.7472    -3.4092    -1.5627 N.ar    
  20 C20            5.5141    -2.9658    -1.4270 C.ar    
  21 O21            7.1322     1.8773    -0.8069 O.2     
  22 C22            6.1629     4.6390    -0.9006 C.3     
  23 C23            8.9287    -4.0726    -0.7177 C.ar    
  24 C24            5.6565     5.3530    -2.1555 C.3     
  25 C25            6.4436     6.6494    -2.3573 C.3     
  26 C26            6.2511     7.5575    -1.1410 C.3     
  27 C27            6.7575     6.8435     0.1138 C.3     
  28 C28            5.9704     5.5471     0.3156 C.3     
  29 Cl29           1.2229    -2.4272     0.2850 Cl      
  30 C30            9.7505    -4.3393     0.3752 C.ar    
  31 N31           10.9753    -4.7911     0.1986 N.ar    
  32 C32           11.4706    -5.0081    -1.0044 C.ar    
  33 C33           10.7176    -4.7678    -2.1395 C.ar    
  34 C34            9.4227    -4.2975    -2.0059 C.ar    
  35 C35           12.8790    -5.5257    -1.1444 C.3     
  36 O36            6.4434     4.8802     1.4876 O.3     
  37 H37           -0.9618     1.8970     0.2196 H       
  38 H38           -0.9076    -0.5525     0.4099 H       
  39 H39            1.1210     3.1596    -0.1408 H       
  40 H40            3.2053    -2.4092     0.9307 H       
  41 H41            2.9808    -2.5481    -0.8296 H       
  42 H42            5.4483    -2.5282     1.9208 H       
  43 H43            7.7625    -3.3779     1.6162 H       
  44 H44            4.8896    -2.8526    -2.3008 H       
  45 H45            7.2216     4.4069    -1.0169 H       
  46 H46            5.7937     4.7061    -3.0219 H       
  47 H47            4.5979     5.5850    -2.0392 H       
  48 H48            7.5023     6.4174    -2.4735 H       
  49 H49            6.0829     7.1581    -3.2512 H       
  50 H50            6.8119     8.4811    -1.2848 H       
  51 H51            5.1925     7.7895    -1.0248 H       
  52 H52            7.8162     6.6114    -0.0024 H       
  53 H53            6.6204     7.4904     0.9803 H       
  54 H54            4.9118     5.7791     0.4319 H       
  55 H55            9.3802    -4.1739     1.3761 H       
  56 H56           11.1342    -4.9490    -3.1193 H       
  57 H57            8.8124    -4.1013    -2.8751 H       
  58 H58           12.8668    -6.6156    -1.1489 H       
  59 H59           13.3080    -5.1633    -2.0786 H       
  60 H60           13.4808    -5.1725    -0.3071 H       
  61 H61            6.3523     5.3985     2.2989 H       
@<TRIPOS>BOND
   1    1    2 ar
   2    1    6 ar
   3    1   37 1
   4    2    3 ar
   5    2   38 1
   6    3    4 ar
   7    3   29 1
   8    4    5 ar
   9    4    7 1
  10    5    6 ar
  11    5   10 1
  12    6   39 1
  13    7    8 1
  14    7   14 1
  15    8    9 2
  16    9   10 1
  17    9   11 1
  18   10   13 2
  19   11   12 am
  20   11   21 2
  21   12   13 1
  22   12   22 1
  23   14   15 1
  24   14   40 1
  25   14   41 1
  26   15   16 ar
  27   15   20 ar
  28   16   17 ar
  29   16   42 1
  30   17   18 ar
  31   17   43 1
  32   18   19 ar
  33   18   23 1
  34   19   20 ar
  35   20   44 1
  36   22   24 1
  37   22   28 1
  38   22   45 1
  39   23   30 ar
  40   23   34 ar
  41   24   25 1
  42   24   46 1
  43   24   47 1
  44   25   26 1
  45   25   48 1
  46   25   49 1
  47   26   27 1
  48   26   50 1
  49   26   51 1
  50   27   28 1
  51   27   52 1
  52   27   53 1
  53   28   36 1
  54   28   54 1
  55   30   31 ar
  56   30   55 1
  57   31   32 ar
  58   32   33 ar
  59   32   35 1
  60   33   34 ar
  61   33   56 1
  62   34   57 1
  63   35   58 1
  64   35   59 1
  65   35   60 1
  66   36   61 1

#	End of record

