#	Name: ASD03490033
#	Creating user name:	WinNT
#	Creation time:	15. 06. 2019 20:42

#	Modifying user name:	WinNT
#	Modification time:	15. 06. 2019 20:42

#	Program:	/corina/corina34_cracker 3.40 0067  02.08.2006

@<TRIPOS>MOLECULE
ASD03490033
  50   50    0    0    0
SMALL
NO_CHARGES


@<TRIPOS>ATOM
   1 O1            -0.5646     1.7474     0.8300 O.3     
   2 C2            -0.3450     0.4233     0.8099 C.2     
   3 C3            -1.4831    -0.5251     0.5337 C.3     
   4 O4             0.7652    -0.0081     1.0132 O.2     
   5 O5            -1.0275    -1.8716     0.6801 O.3     
   6 C6            -2.6201    -0.2603     1.5241 C.3     
   7 O7            -1.9576    -0.3248    -0.7993 O.3     
   8 C8            -3.0260    -1.1961    -1.1754 C.3     
   9 C9            -4.2251    -0.9581    -0.2539 C.3     
  10 C10           -3.7960    -1.1866     1.1990 C.3     
  11 C11           -3.4307    -0.9117    -2.6232 C.3     
  12 C12           -2.2871    -1.3071    -3.5595 C.3     
  13 C13           -2.7366    -1.1402    -5.0124 C.3     
  14 O14           -1.6954    -1.6264    -5.9001 O.3     
  15 O15           -1.1568    -0.4688    -3.3113 O.3     
  16 C16           -4.7206     0.4798    -0.4207 C.3     
  17 O17           -5.7649     0.7360     0.5205 O.3     
  18 O18           -3.3944    -2.5472     1.3705 O.3     
  19 C19           -1.9343    -1.5504    -7.2187 C.2     
  20 O20           -2.9789    -1.0929    -7.6181 O.2     
  21 C21           -0.8998    -2.0359    -8.2011 C.3     
  22 N22           -1.3972    -1.8456    -9.5702 N.3     
  23 N23           -5.2328     0.6651    -1.7807 N.am    
  24 O24           -4.3318     2.6879    -1.9170 O.2     
  25 C25           -4.9817     1.8106    -2.4450 C.2     
  26 C26           -5.5085     2.0012    -3.8440 C.3     
  27 H27            0.1963     2.3159     1.0115 H       
  28 H28           -0.3060    -2.1100     0.0820 H       
  29 H29           -2.2724    -0.4554     2.5385 H       
  30 H30           -2.9407     0.7782     1.4413 H       
  31 H31           -2.6988    -2.2320    -1.0860 H       
  32 H32           -5.0253    -1.6522    -0.5107 H       
  33 H33           -4.6300    -0.9645     1.8647 H       
  34 H34           -4.3205    -1.4901    -2.8720 H       
  35 H35           -3.6440     0.1509    -2.7388 H       
  36 H36           -2.0142    -2.3472    -3.3808 H       
  37 H37           -3.6506    -1.7106    -5.1778 H       
  38 H38           -2.9244    -0.0859    -5.2158 H       
  39 H39           -1.3272     0.4728    -3.4508 H       
  40 H40           -3.8961     1.1709    -0.2456 H       
  41 H41           -6.5629     0.2093     0.3757 H       
  42 H42           -3.1094    -2.7630     2.2690 H       
  43 H43            0.0220    -1.4697    -8.0675 H       
  44 H44           -0.7042    -3.0944    -8.0295 H       
  45 H45           -0.7210    -2.1637   -10.2481 H       
  46 H46           -2.2846    -2.3081    -9.7000 H       
  47 H47           -5.7525    -0.0366    -2.2030 H       
  48 H48           -6.5964     1.9353    -3.8347 H       
  49 H49           -5.2070     2.9807    -4.2155 H       
  50 H50           -5.1030     1.2257    -4.4938 H       
@<TRIPOS>BOND
   1    1    2 1
   2    1   27 1
   3    2    3 1
   4    2    4 2
   5    3    5 1
   6    3    6 1
   7    3    7 1
   8    5   28 1
   9    6   10 1
  10    6   29 1
  11    6   30 1
  12    7    8 1
  13    8    9 1
  14    8   11 1
  15    8   31 1
  16    9   10 1
  17    9   16 1
  18    9   32 1
  19   10   18 1
  20   10   33 1
  21   11   12 1
  22   11   34 1
  23   11   35 1
  24   12   13 1
  25   12   15 1
  26   12   36 1
  27   13   14 1
  28   13   37 1
  29   13   38 1
  30   14   19 1
  31   15   39 1
  32   16   17 1
  33   16   23 1
  34   16   40 1
  35   17   41 1
  36   18   42 1
  37   19   20 2
  38   19   21 1
  39   21   22 1
  40   21   43 1
  41   21   44 1
  42   22   45 1
  43   22   46 1
  44   23   25 am
  45   23   47 1
  46   24   25 2
  47   25   26 1
  48   26   48 1
  49   26   49 1
  50   26   50 1

#	End of record

