#	Name: ASD03240476
#	Creating user name:	WinNT
#	Creation time:	15. 06. 2019 20:35

#	Modifying user name:	WinNT
#	Modification time:	15. 06. 2019 20:35

#	Program:	/corina/corina34_cracker 3.40 0067  02.08.2006

@<TRIPOS>MOLECULE
ASD03240476
  49   52    0    0    0
SMALL
NO_CHARGES


@<TRIPOS>ATOM
   1 C1            -0.0746     1.2940     0.0634 C.ar    
   2 C2            -2.1762     2.8235    -2.2286 C.ar    
   3 C3            -2.0735     1.8356    -1.2659 C.ar    
   4 C4            -1.3384     2.1138     0.0199 C.3     
   5 C5            -2.8484     2.5740    -3.4080 C.ar    
   6 C6            -3.4240     1.3247    -3.6279 C.ar    
   7 C7            -3.3180     0.3335    -2.6548 C.ar    
   8 C8            -2.6436     0.5936    -1.4789 C.ar    
   9 C9            -4.1487     1.0507    -4.8945 C.2     
  10 C10           -4.7563    -0.1214    -5.2384 C.2     
  11 N11           -5.2967     0.0432    -6.4626 N.pl3   
  12 N12           -5.0197     1.3469    -6.8915 N.2     
  13 C13           -4.3391     1.9557    -5.9569 C.2     
  14 C14           -0.1595    -0.0925     0.1774 C.ar    
  15 C15            1.1322     1.9181    -0.0148 C.ar    
  16 C16            2.3127     1.1561     0.0196 C.ar    
  17 C17            2.2263    -0.2539     0.1355 C.ar    
  18 C18            0.9619    -0.8627     0.2138 C.ar    
  19 C19           -2.2287     1.7418     1.2072 C.3     
  20 C20           -1.5331     2.1394     2.5106 C.3     
  21 N21           -2.3880     1.7822     3.6506 N.3     
  22 C22            3.5766     1.7646    -0.0591 C.ar    
  23 C23            4.6984     0.9943    -0.0232 C.ar    
  24 C24            4.6135    -0.3918     0.0904 C.ar    
  25 C25            3.4063    -1.0159     0.1695 C.ar    
  26 C26           -1.7508     2.1501     4.9221 C.3     
  27 H27           -1.7334     3.7932    -2.0553 H       
  28 H28           -1.0863     3.1730     0.0725 H       
  29 H29           -2.9282     3.3461    -4.1589 H       
  30 H30           -3.7625    -0.6368    -2.8203 H       
  31 H31           -2.5605    -0.1743    -0.7240 H       
  32 H32           -4.7971    -1.0186    -4.6386 H       
  33 H33           -5.7916    -0.6262    -6.9605 H       
  34 H34           -3.9790     2.9731    -5.9953 H       
  35 H35           -1.1299    -0.5628     0.2381 H       
  36 H36            1.1825     2.9933    -0.1032 H       
  37 H37            0.8807    -1.9359     0.3027 H       
  38 H38           -3.1796     2.2688     1.1274 H       
  39 H39           -2.4079     0.6666     1.2042 H       
  40 H40           -0.5823     1.6124     2.5904 H       
  41 H41           -1.3540     3.2145     2.5136 H       
  42 H42           -3.2992     2.2074     3.5664 H       
  43 H43            3.6578     2.8379    -0.1481 H       
  44 H44            5.6687     1.4646    -0.0839 H       
  45 H45            5.5190    -0.9798     0.1163 H       
  46 H46            3.3558    -2.0911     0.2572 H       
  47 H47           -2.4049     1.8747     5.7493 H       
  48 H48           -0.8015     1.6232     5.0185 H       
  49 H49           -1.5732     3.2253     4.9417 H       
@<TRIPOS>BOND
   1    1   14 ar
   2    1   15 ar
   3    1    4 1
   4    2    3 ar
   5    2    5 ar
   6    2   27 1
   7    3    4 1
   8    3    8 ar
   9    4   19 1
  10    4   28 1
  11    5    6 ar
  12    5   29 1
  13    6    7 ar
  14    6    9 1
  15    7    8 ar
  16    7   30 1
  17    8   31 1
  18    9   10 2
  19    9   13 1
  20   10   11 1
  21   10   32 1
  22   11   12 1
  23   11   33 1
  24   12   13 2
  25   13   34 1
  26   14   18 ar
  27   14   35 1
  28   15   16 ar
  29   15   36 1
  30   16   17 ar
  31   16   22 ar
  32   17   18 ar
  33   17   25 ar
  34   18   37 1
  35   19   20 1
  36   19   38 1
  37   19   39 1
  38   20   21 1
  39   20   40 1
  40   20   41 1
  41   21   26 1
  42   21   42 1
  43   22   23 ar
  44   22   43 1
  45   23   24 ar
  46   23   44 1
  47   24   25 ar
  48   24   45 1
  49   25   46 1
  50   26   47 1
  51   26   48 1
  52   26   49 1

#	End of record

