#	Name: ASD01230197
#	Creating user name:	WinNT
#	Creation time:	15. 06. 2019 19:12

#	Modifying user name:	WinNT
#	Modification time:	15. 06. 2019 19:12

#	Program:	/corina/corina34_cracker 3.40 0067  02.08.2006

@<TRIPOS>MOLECULE
ASD01230197
  38   41    0    0    0
SMALL
NO_CHARGES


@<TRIPOS>ATOM
   1 S1            -0.0566     1.6615    -0.0324 S.o2    
   2 N2            -0.0210     0.0073    -0.0211 N.am    
   3 C3             1.0092    -0.6733    -0.4620 C.2     
   4 N4             2.1551    -0.1348    -0.9743 N.pl3   
   5 C5             2.3698     1.3019    -1.1660 C.3     
   6 C6             1.7105     2.1000    -0.0374 C.3     
   7 C7             0.8925    -2.1451    -0.3845 C.2     
   8 C8             1.9525    -2.9246    -0.7937 C.2     
   9 C9             3.1107    -2.2983    -1.2744 C.2     
  10 C10            3.1872    -0.9586    -1.3495 C.2     
  11 C11           -0.3471    -2.7733     0.1265 C.ar    
  12 C12           -0.3205    -3.5108     1.3107 C.ar    
  13 C13           -1.4769    -4.0940     1.7837 C.ar    
  14 C14           -2.6667    -3.9483     1.0831 C.ar    
  15 C15           -2.6971    -3.2151    -0.0955 C.ar    
  16 C16           -1.5458    -2.6243    -0.5717 C.ar    
  17 O17           -3.8044    -4.5252     1.5520 O.3     
  18 C18           -3.6786    -5.3709     2.6970 C.3     
  19 C19           -4.8275    -5.3673     3.7075 C.3     
  20 C20           -4.6174    -6.5753     2.7923 C.3     
  21 O21           -0.6632     1.9976    -1.2726 O.2     
  22 O22           -0.6604     2.0145     1.2046 O.2     
  23 H23            3.4402     1.5074    -1.1739 H       
  24 H24            1.9390     1.6055    -2.1201 H       
  25 H25            1.8277     3.1681    -0.2203 H       
  26 H26            2.1620     1.8341     0.9184 H       
  27 H27            1.8920    -4.0018    -0.7443 H       
  28 H28            3.9515    -2.8993    -1.5880 H       
  29 H29            4.0980    -0.5118    -1.7200 H       
  30 H30            0.6048    -3.6251     1.8558 H       
  31 H31           -1.4571    -4.6650     2.7002 H       
  32 H32           -3.6244    -3.1040    -0.6378 H       
  33 H33           -1.5710    -2.0506    -1.4864 H       
  34 H34           -2.6671    -5.4889     3.0855 H       
  35 H35           -4.5717    -5.4834     4.7607 H       
  36 H36           -5.6792    -4.7199     3.4989 H       
  37 H37           -5.3309    -6.7226     1.9815 H       
  38 H38           -4.2235    -7.4860     3.2434 H       
@<TRIPOS>BOND
   1    1    2 am
   2    1    6 1
   3    1   21 2
   4    1   22 2
   5    2    3 2
   6    3    4 1
   7    3    7 1
   8    4    5 1
   9    4   10 1
  10    5    6 1
  11    5   23 1
  12    5   24 1
  13    6   25 1
  14    6   26 1
  15    7    8 2
  16    7   11 1
  17    8    9 1
  18    8   27 1
  19    9   10 2
  20    9   28 1
  21   10   29 1
  22   11   12 ar
  23   11   16 ar
  24   12   13 ar
  25   12   30 1
  26   13   14 ar
  27   13   31 1
  28   14   15 ar
  29   14   17 1
  30   15   16 ar
  31   15   32 1
  32   16   33 1
  33   17   18 1
  34   18   19 1
  35   18   20 1
  36   18   34 1
  37   19   20 1
  38   19   35 1
  39   19   36 1
  40   20   37 1
  41   20   38 1

#	End of record

