#	Name: ASD06170403
#	Creating user name:	WinNT
#	Creation time:	15. 06. 2019 21:05

#	Modifying user name:	WinNT
#	Modification time:	15. 06. 2019 21:05

#	Program:	/corina/corina34_cracker 3.40 0067  02.08.2006

@<TRIPOS>MOLECULE
ASD06170403
  66   70    0    0    0
SMALL
NO_CHARGES


@<TRIPOS>ATOM
   1 N1             0.2866     2.3499     0.6040 N.am    
   2 N2             0.5003     1.2693     1.4648 N.pl3   
   3 C3             1.7649     0.8244     1.3373 C.2     
   4 C4             2.4094     1.5995     0.3931 C.2     
   5 C5             1.4276     2.5907    -0.0747 C.2     
   6 C6             3.8003     1.4619    -0.0552 C.2     
   7 O7             4.5089     0.5929     0.4177 O.2     
   8 N8             4.2927     2.2979    -0.9907 N.am    
   9 C9             5.6589     2.2788    -1.2975 C.ar    
  10 C10            6.3949     1.1150    -1.1180 C.ar    
  11 C11            8.3599     2.2407    -1.9051 C.ar    
  12 C12            7.6240     3.4024    -2.0896 C.ar    
  13 C13            6.2770     3.4220    -1.7868 C.ar    
  14 O14            9.6863     2.2221    -2.2030 O.3     
  15 N15           12.3139     3.5720     0.6750 N.ar    
  16 C16           12.8186     3.1166    -0.4779 C.ar    
  17 C17           11.9505     2.6439    -1.4922 C.ar    
  18 C18           10.5562     2.6638    -1.2618 C.ar    
  19 C19           10.1061     3.1485    -0.0462 C.ar    
  20 C20           11.0209     3.5948     0.8989 C.ar    
  21 O21            1.6090     3.4573    -0.9095 O.2     
  22 C22           -0.9111     3.0588     0.4651 C.ar    
  23 C23           -1.6533     3.3980     1.5890 C.ar    
  24 C24           -2.8356     4.0979     1.4484 C.ar    
  25 C25            7.7418     1.0966    -1.4212 C.ar    
  26 C26            2.3744    -0.3257     2.0970 C.3     
  27 C27           -0.5025     0.7051     2.3717 C.3     
  28 C28           -3.2806     4.4610     0.1905 C.ar    
  29 C29           -2.5440     4.1247    -0.9305 C.ar    
  30 C30           -1.3580     3.4299    -0.7964 C.ar    
  31 C31           -1.1501    -0.5176     1.7188 C.3     
  32 C32           -2.1973    -1.1068     2.6659 C.3     
  33 C33           12.4816     2.1680    -2.6999 C.ar    
  34 C34           13.8289     2.1625    -2.8919 C.ar    
  35 C35           14.6949     2.6267    -1.8977 C.ar    
  36 C36           14.2045     3.0996    -0.7015 C.ar    
  37 O37           16.0357     2.6106    -2.1142 O.3     
  38 C38           16.4834     2.1080    -3.3747 C.3     
  39 H39            3.7007     2.9129    -1.4514 H       
  40 H40            5.9139     0.2245    -0.7410 H       
  41 H41            8.1049     4.2915    -2.4698 H       
  42 H42            5.7041     4.3262    -1.9308 H       
  43 H43            9.0478     3.1794     0.1669 H       
  44 H44           10.6583     3.9706     1.8442 H       
  45 H45           -1.3065     3.1145     2.5717 H       
  46 H46           -3.4134     4.3617     2.3219 H       
  47 H47            8.3144     0.1916    -1.2813 H       
  48 H48            2.2190    -1.2508     1.5419 H       
  49 H49            3.4432    -0.1525     2.2225 H       
  50 H50            1.9018    -0.4056     3.0760 H       
  51 H51           -0.0227     0.4078     3.3042 H       
  52 H52           -1.2670     1.4539     2.5791 H       
  53 H53           -4.2056     5.0080     0.0832 H       
  54 H54           -2.8942     4.4097    -1.9116 H       
  55 H55           -0.7830     3.1678    -1.6723 H       
  56 H56           -1.6298    -0.2203     0.7863 H       
  57 H57           -0.3856    -1.2664     1.5114 H       
  58 H58           -2.9618    -0.3581     2.8733 H       
  59 H59           -2.6587    -1.9780     2.2007 H       
  60 H60           -1.7176    -1.4042     3.5983 H       
  61 H61           11.8229     1.8064    -3.4756 H       
  62 H62           14.2338     1.7949    -3.8233 H       
  63 H63           14.8820     3.4563     0.0602 H       
  64 H64           17.5717     2.1507    -3.4172 H       
  65 H65           16.1555     1.0750    -3.4912 H       
  66 H66           16.0643     2.7148    -4.1774 H       
@<TRIPOS>BOND
   1    1    2 1
   2    1    5 am
   3    1   22 1
   4    2    3 1
   5    2   27 1
   6    3    4 2
   7    3   26 1
   8    4    5 1
   9    4    6 1
  10    5   21 2
  11    6    7 2
  12    6    8 am
  13    8    9 1
  14    8   39 1
  15    9   10 ar
  16    9   13 ar
  17   10   25 ar
  18   10   40 1
  19   11   12 ar
  20   11   14 1
  21   11   25 ar
  22   12   13 ar
  23   12   41 1
  24   13   42 1
  25   14   18 1
  26   15   16 ar
  27   15   20 ar
  28   16   17 ar
  29   16   36 ar
  30   17   18 ar
  31   17   33 ar
  32   18   19 ar
  33   19   20 ar
  34   19   43 1
  35   20   44 1
  36   22   23 ar
  37   22   30 ar
  38   23   24 ar
  39   23   45 1
  40   24   28 ar
  41   24   46 1
  42   25   47 1
  43   26   48 1
  44   26   49 1
  45   26   50 1
  46   27   31 1
  47   27   51 1
  48   27   52 1
  49   28   29 ar
  50   28   53 1
  51   29   30 ar
  52   29   54 1
  53   30   55 1
  54   31   32 1
  55   31   56 1
  56   31   57 1
  57   32   58 1
  58   32   59 1
  59   32   60 1
  60   33   34 ar
  61   33   61 1
  62   34   35 ar
  63   34   62 1
  64   35   36 ar
  65   35   37 1
  66   36   63 1
  67   37   38 1
  68   38   64 1
  69   38   65 1
  70   38   66 1

#	End of record

