#	Name: ASD01020020
#	Creating user name:	WinNT
#	Creation time:	15. 06. 2019 18:56

#	Modifying user name:	WinNT
#	Modification time:	15. 06. 2019 18:56

#	Program:	/corina/corina34_cracker 3.40 0067  02.08.2006

@<TRIPOS>MOLECULE
ASD01020020
  67   72    0    0    0
SMALL
NO_CHARGES


@<TRIPOS>ATOM
   1 O1            -3.3078     3.2293     0.0893 O.2     
   2 C2            -2.0969     3.2340     0.1568 C.2     
   3 N3            -1.4378     4.3918     0.3607 N.am    
   4 C4            -2.1459     5.5805     0.4936 C.2     
   5 N5            -3.4369     5.6853     0.4432 N.2     
   6 C6            -3.9444     6.8949     0.5899 C.2     
   7 C7            -3.0390     7.8579     0.7731 C.2     
   8 S8            -1.4412     7.1162     0.7546 S.3     
   9 C9            -1.3296     1.9443     0.0189 C.3     
  10 H10           -0.6546     2.0125    -0.8342 H       
  11 N11           -2.2673     0.8378    -0.1875 N.am    
  12 C12           -3.2600     0.3668     0.7847 C.3     
  13 C13           -3.9844    -0.7814     0.1265 C.ar    
  14 C14           -5.0034    -1.6101     0.5385 C.ar    
  15 C15           -5.4751    -2.6010    -0.3028 C.ar    
  16 C16           -4.9192    -2.7637    -1.5709 C.ar    
  17 C17           -3.8893    -1.9292    -1.9925 C.ar    
  18 C18           -3.4165    -0.9309    -1.1421 C.ar    
  19 C19           -2.3636     0.0910    -1.3008 C.2     
  20 O20           -1.6792     0.2347    -2.2950 O.2     
  21 C21           -5.4264    -3.8286    -2.4717 C.ar    
  22 C22           -4.8692    -3.9976    -3.7375 C.ar    
  23 C23           -5.3448    -4.9894    -4.5712 C.ar    
  24 C24           -6.3728    -5.8146    -4.1522 C.ar    
  25 C25           -6.8879    -6.8958    -5.0669 C.3     
  26 N26           -6.1297    -8.1331    -4.8380 N.3     
  27 C27           -6.3858    -8.6663    -3.4928 C.3     
  28 C28           -5.5193    -9.9073    -3.2654 C.3     
  29 N29           -5.8264   -10.9111    -4.2939 N.3     
  30 C30           -5.5704   -10.3778    -5.6392 C.3     
  31 C31           -6.4368    -9.1368    -5.8665 C.3     
  32 C32           -6.9296    -5.6512    -2.8966 C.ar    
  33 C33           -6.4575    -4.6665    -2.0524 C.ar    
  34 C34           -0.5308     1.6985     1.2730 C.ar    
  35 C35           -1.1786     1.5148     2.4802 C.ar    
  36 C36           -0.4459     1.2893     3.6305 C.ar    
  37 C37            0.9346     1.2471     3.5735 C.ar    
  38 C38            1.5824     1.4300     2.3661 C.ar    
  39 C39            0.8495     1.6512     1.2150 C.ar    
  40 H40           -0.4693     4.3955     0.4147 H       
  41 H41           -5.0064     7.0894     0.5636 H       
  42 H42           -3.2493     8.9081     0.9118 H       
  43 H43           -2.7625     0.0247     1.6922 H       
  44 H44           -3.9620     1.1666     1.0206 H       
  45 H45           -5.4351    -1.4864     1.5207 H       
  46 H46           -6.2746    -3.2498     0.0231 H       
  47 H47           -3.4576    -2.0543    -2.9745 H       
  48 H48           -4.0670    -3.3534    -4.0659 H       
  49 H49           -4.9136    -5.1213    -5.5526 H       
  50 H50           -7.9435    -7.0732    -4.8614 H       
  51 H51           -6.7673    -6.5824    -6.1039 H       
  52 H52           -6.1390    -7.9092    -2.7484 H       
  53 H53           -7.4380    -8.9360    -3.4027 H       
  54 H54           -4.4665    -9.6323    -3.3286 H       
  55 H55           -5.7288   -10.3214    -2.2792 H       
  56 H56           -5.3057   -11.7609    -4.1367 H       
  57 H57           -4.5181   -10.1082    -5.7293 H       
  58 H58           -5.8171   -11.1349    -6.3835 H       
  59 H59           -7.4897    -9.4118    -5.8034 H       
  60 H60           -6.2273    -8.7227    -6.8528 H       
  61 H61           -7.7323    -6.2980    -2.5746 H       
  62 H62           -6.8896    -4.5430    -1.0704 H       
  63 H63           -2.2572     1.5477     2.5247 H       
  64 H64           -0.9520     1.1465     4.5738 H       
  65 H65            1.5071     1.0717     4.4723 H       
  66 H66            2.6610     1.3974     2.3216 H       
  67 H67            1.3555     1.7903     0.2711 H       
@<TRIPOS>BOND
   1    1    2 2
   2    2    3 am
   3    2    9 1
   4    3    4 1
   5    3   40 1
   6    4    8 1
   7    4    5 2
   8    5    6 1
   9    6    7 2
  10    6   41 1
  11    7    8 1
  12    7   42 1
  13    9   10 1
  14    9   11 1
  15    9   34 1
  16   11   19 am
  17   11   12 1
  18   12   13 1
  19   12   43 1
  20   12   44 1
  21   13   18 ar
  22   13   14 ar
  23   14   15 ar
  24   14   45 1
  25   15   16 ar
  26   15   46 1
  27   16   17 ar
  28   16   21 1
  29   17   18 ar
  30   17   47 1
  31   18   19 1
  32   19   20 2
  33   21   33 ar
  34   21   22 ar
  35   22   23 ar
  36   22   48 1
  37   23   24 ar
  38   23   49 1
  39   24   25 1
  40   24   32 ar
  41   25   26 1
  42   25   50 1
  43   25   51 1
  44   26   31 1
  45   26   27 1
  46   27   28 1
  47   27   52 1
  48   27   53 1
  49   28   29 1
  50   28   54 1
  51   28   55 1
  52   29   30 1
  53   29   56 1
  54   30   31 1
  55   30   57 1
  56   30   58 1
  57   31   59 1
  58   31   60 1
  59   32   33 ar
  60   32   61 1
  61   33   62 1
  62   34   39 ar
  63   34   35 ar
  64   35   36 ar
  65   35   63 1
  66   36   37 ar
  67   36   64 1
  68   37   38 ar
  69   37   65 1
  70   38   39 ar
  71   38   66 1
  72   39   67 1

#	End of record

