#	Name: ASD01882444
#	Creating user name:	WinNT
#	Creation time:	15. 06. 2019 19:44

#	Modifying user name:	WinNT
#	Modification time:	15. 06. 2019 19:44

#	Program:	/corina/corina34_cracker 3.40 0067  02.08.2006

@<TRIPOS>MOLECULE
ASD01882444
  55   59    0    0    0
SMALL
NO_CHARGES


@<TRIPOS>ATOM
   1 C1             0.9788     0.5799     1.0584 C.2     
   2 C2             0.8620    -0.7971     0.7825 C.2     
   3 C3             1.9810    -1.5115     0.4819 C.2     
   4 C4             3.2307    -0.8693     0.4510 C.2     
   5 C5             3.3268     0.4500     0.7179 C.2     
   6 N6             2.2139     1.1788     1.0203 N.pl3   
   7 N7             0.7194     2.6427     1.5267 N.2     
   8 N8             0.1048     1.5232     1.3693 N.2     
   9 C9             2.0026     2.4878     1.3251 C.2     
  10 C10            1.8802    -2.9853     0.1839 C.3     
  11 N11            1.7879    -3.1860    -1.2684 N.3     
  12 C12            1.9264    -4.6067    -1.6132 C.3     
  13 C13            1.9713    -4.7617    -3.1350 C.3     
  14 C14            0.6841    -4.1937    -3.7392 C.3     
  15 C15            0.5393    -2.7267    -3.3252 C.3     
  16 C16            0.5358    -2.6307    -1.7979 C.3     
  17 C17            0.7494    -4.2904    -5.2648 C.3     
  18 F18            0.8890    -5.6304    -5.6416 F       
  19 F19           -0.4271    -3.7712    -5.8157 F       
  20 F20            1.8459    -3.5579    -5.7320 F       
  21 C21           -0.4987    -4.9788    -3.2337 C.ar    
  22 C22           -0.4960    -6.3591    -3.3106 C.ar    
  23 C23           -1.5810    -7.0793    -2.8470 C.ar    
  24 C24           -2.6685    -6.4193    -2.3060 C.ar    
  25 C25           -2.6708    -5.0391    -2.2282 C.ar    
  26 C26           -1.5839    -4.3191    -2.6879 C.ar    
  27 C27            3.0546     3.5632     1.4130 C.3     
  28 C28            3.2250     4.2231     0.0432 C.3     
  29 C29            4.1682     5.4242    -0.0499 C.3     
  30 C30            4.5828     4.0779    -0.6469 C.3     
  31 Cl31          -0.6902    -1.5731     0.8261 Cl      
  32 H32            4.1193    -1.4349     0.2126 H       
  33 H33            4.2925     0.9329     0.6915 H       
  34 H34            2.7652    -3.4945     0.5655 H       
  35 H35            0.9909    -3.3931     0.6643 H       
  36 H36            2.8477    -4.9972    -1.1810 H       
  37 H37            1.0759    -5.1612    -1.2166 H       
  38 H38            2.8296    -4.2187    -3.5309 H       
  39 H39            2.0584    -5.8176    -3.3909 H       
  40 H40            1.3750    -2.1517    -3.7241 H       
  41 H41           -0.3968    -2.3288    -3.7170 H       
  42 H42           -0.3082    -3.1945    -1.4005 H       
  43 H43            0.4471    -1.5860    -1.4998 H       
  44 H44            0.3537    -6.8747    -3.7333 H       
  45 H45           -1.5792    -8.1575    -2.9077 H       
  46 H46           -3.5164    -6.9819    -1.9444 H       
  47 H47           -3.5205    -4.5235    -1.8059 H       
  48 H48           -1.5841    -3.2410    -2.6238 H       
  49 H49            2.7475     4.3132     2.1419 H       
  50 H50            4.0012     3.1210     1.7235 H       
  51 H51            2.3370     4.2303    -0.5889 H       
  52 H52            3.9009     6.2215    -0.7435 H       
  53 H53            4.6673     5.7443     0.8647 H       
  54 H54            5.3547     3.5123    -0.1251 H       
  55 H55            4.5883     3.9894    -1.7333 H       
@<TRIPOS>BOND
   1    1    2 1
   2    1    6 1
   3    1    8 2
   4    2    3 2
   5    2   31 1
   6    3    4 1
   7    3   10 1
   8    4    5 2
   9    4   32 1
  10    5    6 1
  11    5   33 1
  12    6    9 1
  13    7    8 1
  14    7    9 2
  15    9   27 1
  16   10   11 1
  17   10   34 1
  18   10   35 1
  19   11   12 1
  20   11   16 1
  21   12   13 1
  22   12   36 1
  23   12   37 1
  24   13   14 1
  25   13   38 1
  26   13   39 1
  27   14   15 1
  28   14   17 1
  29   14   21 1
  30   15   16 1
  31   15   40 1
  32   15   41 1
  33   16   42 1
  34   16   43 1
  35   17   18 1
  36   17   19 1
  37   17   20 1
  38   21   22 ar
  39   21   26 ar
  40   22   23 ar
  41   22   44 1
  42   23   24 ar
  43   23   45 1
  44   24   25 ar
  45   24   46 1
  46   25   26 ar
  47   25   47 1
  48   26   48 1
  49   27   28 1
  50   27   49 1
  51   27   50 1
  52   28   29 1
  53   28   30 1
  54   28   51 1
  55   29   30 1
  56   29   52 1
  57   29   53 1
  58   30   54 1
  59   30   55 1

#	End of record

