#	Name: ASD03331870
#	Creating user name:	WinNT
#	Creation time:	15. 06. 2019 20:40

#	Modifying user name:	WinNT
#	Modification time:	15. 06. 2019 20:40

#	Program:	/corina/corina34_cracker 3.40 0067  02.08.2006

@<TRIPOS>MOLECULE
ASD03331870
  49   52    0    0    0
SMALL
NO_CHARGES


@<TRIPOS>ATOM
   1 C1             1.5873     0.4888     3.0303 C.ar    
   2 C2             0.3323     0.5940     2.4263 C.ar    
   3 C3             0.2014     1.2457     1.2173 C.ar    
   4 C4             1.3091     1.7962     0.5997 C.ar    
   5 C5             2.5621     1.6971     1.1923 C.ar    
   6 C6             2.7048     1.0444     2.4069 C.ar    
   7 N7             3.6801     2.2562     0.5627 N.am    
   8 C8             4.8762     1.6402     0.6417 C.2     
   9 N9             5.9319     2.1283    -0.0393 N.am    
  10 O10            5.0030     0.6441     1.3274 O.2     
  11 C11            7.1954     1.5472     0.1177 C.ar    
  12 C12            8.5571    -0.4028     0.4560 C.ar    
  13 C13            7.3111     0.1748     0.3000 C.ar    
  14 C14            8.3325     2.3403     0.0857 C.ar    
  15 C15            9.5874     1.7576     0.2425 C.ar    
  16 C16            9.6936     0.3802     0.4307 C.ar    
  17 C17           10.8078     2.5998     0.2089 C.ar    
  18 N18           10.6860     3.9077     0.0284 N.ar    
  19 C19           11.7520     4.6920    -0.0070 C.ar    
  20 C20           13.0073     4.1345     0.1469 C.ar    
  21 C21           13.1047     2.7536     0.3355 C.ar    
  22 N22           11.9930     2.0270     0.3654 N.ar    
  23 N23           14.3425     2.1515     0.4942 N.3     
  24 C24           14.2020     0.6952     0.6775 C.3     
  25 C25           15.0395     0.0129    -0.4245 C.3     
  26 C26           16.0604     1.1125    -0.8189 C.3     
  27 C27           15.2057     2.3970    -0.6807 C.3     
  28 C28            1.7254    -0.1819     4.2880 C.1     
  29 N29            1.8349    -0.7139     5.2857 N.1     
  30 H30           -0.5354     0.1650     2.9053 H       
  31 H31           -0.7697     1.3258     0.7515 H       
  32 H32            1.2003     2.3048    -0.3468 H       
  33 H33            3.6778     0.9667     2.8691 H       
  34 H34            3.5940     3.0870     0.0696 H       
  35 H35            5.8160     2.8824    -0.6383 H       
  36 H36            8.6418    -1.4701     0.5981 H       
  37 H37            6.4250    -0.4424     0.3203 H       
  38 H38            8.2450     3.4068    -0.0607 H       
  39 H39           10.6654    -0.0745     0.5536 H       
  40 H40           11.6419     5.7562    -0.1549 H       
  41 H41           13.8928     4.7522     0.1217 H       
  42 H42           14.5766     0.4073     1.6598 H       
  43 H43           13.1551     0.4083     0.5788 H       
  44 H44           15.5517    -0.8652    -0.0312 H       
  45 H45           14.4127    -0.2541    -1.2753 H       
  46 H46           16.9036     1.1283    -0.1284 H       
  47 H47           16.4010     0.9788    -1.8457 H       
  48 H48           14.5982     2.5465    -1.5732 H       
  49 H49           15.8459     3.2619    -0.5070 H       
@<TRIPOS>BOND
   1    1    2 ar
   2    1    6 ar
   3    1   28 1
   4    2    3 ar
   5    2   30 1
   6    3    4 ar
   7    3   31 1
   8    4    5 ar
   9    4   32 1
  10    5    6 ar
  11    5    7 1
  12    6   33 1
  13    7    8 am
  14    7   34 1
  15    8    9 am
  16    8   10 2
  17    9   11 1
  18    9   35 1
  19   11   14 ar
  20   11   13 ar
  21   12   13 ar
  22   12   16 ar
  23   12   36 1
  24   13   37 1
  25   14   15 ar
  26   14   38 1
  27   15   16 ar
  28   15   17 1
  29   16   39 1
  30   17   18 ar
  31   17   22 ar
  32   18   19 ar
  33   19   20 ar
  34   19   40 1
  35   20   21 ar
  36   20   41 1
  37   21   22 ar
  38   21   23 1
  39   23   24 1
  40   23   27 1
  41   24   25 1
  42   24   42 1
  43   24   43 1
  44   25   26 1
  45   25   44 1
  46   25   45 1
  47   26   27 1
  48   26   46 1
  49   26   47 1
  50   27   48 1
  51   27   49 1
  52   28   29 3

#	End of record

