#	Name: ASD05213030
#	Creating user name:	WinNT
#	Creation time:	15. 06. 2019 20:57

#	Modifying user name:	WinNT
#	Modification time:	15. 06. 2019 20:57

#	Program:	/corina/corina34_cracker 3.40 0067  02.08.2006

@<TRIPOS>MOLECULE
ASD05213030
  26   28    0    0    0
SMALL
NO_CHARGES


@<TRIPOS>ATOM
   1 S1            -0.0218     1.7577     0.0117 S.3     
   2 C2             0.0021    -0.0041     0.0020 C.2     
   3 N3             1.0848    -0.7396    -0.0118 N.2     
   4 C4             0.7215    -2.0510    -0.0156 C.ar    
   5 C5            -0.6813    -2.0796    -0.0029 C.ar    
   6 O6            -1.0895    -0.7899     0.0136 O.3     
   7 C7             1.4372    -3.2492    -0.0285 C.ar    
   8 C8             0.7606    -4.4492    -0.0288 C.ar    
   9 C9            -0.6256    -4.4729    -0.0168 C.ar    
  10 C10           -1.3456    -3.2953    -0.0030 C.ar    
  11 C11            1.7090     2.0873    -0.0030 C.2     
  12 S12            2.4091     3.6471    -0.0014 S.3     
  13 C13            4.0206     2.9356    -0.0206 C.2     
  14 C14            3.8871     1.6082    -0.0264 C.2     
  15 N15            2.6378     1.1819    -0.0112 N.2     
  16 C16           -1.3514    -5.7937    -0.0178 C.3     
  17 N17            5.3012     3.6815    -0.0293 N.pl3   
  18 O18            6.3583     3.0766    -0.0430 O.2     
  19 O19            5.2966     4.8995    -0.0226 O.2     
  20 H20            2.5171    -3.2357    -0.0387 H       
  21 H21            1.3132    -5.3771    -0.0389 H       
  22 H22           -2.4253    -3.3216     0.0062 H       
  23 H23            4.7328     0.9367    -0.0385 H       
  24 H24           -1.5173    -6.1178     1.0096 H       
  25 H25           -2.3108    -5.6806    -0.5226 H       
  26 H26           -0.7510    -6.5378    -0.5410 H       
@<TRIPOS>BOND
   1    1    2 1
   2    1   11 1
   3    2    3 2
   4    2    6 1
   5    3    4 1
   6    4    5 ar
   7    4    7 ar
   8    5    6 1
   9    5   10 ar
  10    7    8 ar
  11    7   20 1
  12    8    9 ar
  13    8   21 1
  14    9   10 ar
  15    9   16 1
  16   10   22 1
  17   11   12 1
  18   11   15 2
  19   12   13 1
  20   13   14 2
  21   13   17 1
  22   14   15 1
  23   14   23 1
  24   16   24 1
  25   16   25 1
  26   16   26 1
  27   17   18 2
  28   17   19 2

#	End of record

