#	Name: ASD01914356
#	Creating user name:	WinNT
#	Creation time:	15. 06. 2019 20:03

#	Modifying user name:	WinNT
#	Modification time:	15. 06. 2019 20:03

#	Program:	/corina/corina34_cracker 3.40 0067  02.08.2006

@<TRIPOS>MOLECULE
ASD01914356
  35   37    0    0    0
SMALL
NO_CHARGES


@<TRIPOS>ATOM
   1 C1            -0.0163     1.3509     0.0095 C.2     
   2 N2             0.0021    -0.0041     0.0020 N.pl3   
   3 C3            -1.2082    -0.8318     0.0137 C.3     
   4 C4            -2.3874     0.0484     0.4469 C.3     
   5 N5            -2.4021     1.2844    -0.3482 N.3     
   6 C6            -1.2836     2.1688     0.0204 C.3     
   7 C7             1.2585     1.7812    -0.0004 C.2     
   8 C8             2.0908     0.6539    -0.0167 C.2     
   9 N9             1.3335    -0.4164    -0.0160 N.2     
  10 C10            3.5976     0.6693    -0.0327 C.3     
  11 O11            4.0603     2.0213    -0.0288 O.3     
  12 C12            5.4057     2.2130    -0.0419 C.ar    
  13 C13            5.9242     3.4998    -0.0391 C.ar    
  14 C14            7.2921     3.6920    -0.0520 C.ar    
  15 C15            8.1443     2.6033    -0.0677 C.ar    
  16 C16            6.2629     1.1223    -0.0524 C.ar    
  17 C17            7.6300     1.3198    -0.0710 C.ar    
  18 C18           -3.6971    -0.7122     0.2295 C.3     
  19 H19           -1.3924    -1.2278    -0.9850 H       
  20 H20           -1.0846    -1.6539     0.7187 H       
  21 H21           -2.2849     0.2978     1.5030 H       
  22 H22           -2.3877     1.0791    -1.3360 H       
  23 H23           -1.4478     2.5736     1.0190 H       
  24 H24           -1.2055     2.9834    -0.6997 H       
  25 H25            1.5824     2.8114     0.0032 H       
  26 H26            3.9756     0.1533     0.8500 H       
  27 H27            3.9566     0.1650    -0.9299 H       
  28 H28            5.2590     4.3505    -0.0271 H       
  29 H29            7.6963     4.6935    -0.0501 H       
  30 H30            9.2134     2.7557    -0.0778 H       
  31 H31            5.8617     0.1195    -0.0501 H       
  32 H32            8.2977     0.4711    -0.0837 H       
  33 H33           -3.6888    -1.6268     0.8224 H       
  34 H34           -4.5355    -0.0874     0.5371 H       
  35 H35           -3.7999    -0.9644    -0.8259 H       
@<TRIPOS>BOND
   1    1    2 1
   2    1    7 2
   3    1    6 1
   4    2    3 1
   5    2    9 1
   6    3    4 1
   7    3   19 1
   8    3   20 1
   9    4    5 1
  10    4   18 1
  11    4   21 1
  12    5    6 1
  13    5   22 1
  14    6   23 1
  15    6   24 1
  16    7    8 1
  17    7   25 1
  18    8    9 2
  19    8   10 1
  20   10   11 1
  21   10   26 1
  22   10   27 1
  23   11   12 1
  24   12   13 ar
  25   12   16 ar
  26   13   14 ar
  27   13   28 1
  28   14   15 ar
  29   14   29 1
  30   15   17 ar
  31   15   30 1
  32   16   17 ar
  33   16   31 1
  34   17   32 1
  35   18   33 1
  36   18   34 1
  37   18   35 1

#	End of record

