#	Name: ASD05940023
#	Creating user name:	WinNT
#	Creation time:	15. 06. 2019 21:04

#	Modifying user name:	WinNT
#	Modification time:	15. 06. 2019 21:04

#	Program:	/corina/corina34_cracker 3.40 0067  02.08.2006

@<TRIPOS>MOLECULE
ASD05940023
  58   61    0    0    0
SMALL
NO_CHARGES


@<TRIPOS>ATOM
   1 N1            -0.0159     1.3198     0.0093 N.ar    
   2 C2             0.0021    -0.0041     0.0020 C.ar    
   3 N3             1.1339    -0.6929    -0.0101 N.ar    
   4 C4             2.3079    -0.0668    -0.0158 C.ar    
   5 C5             2.3276     1.3271    -0.0126 C.ar    
   6 C6             1.1197     2.0180     0.0022 C.ar    
   7 N7             3.4930    -0.7821    -0.0194 N.3     
   8 C8             4.5338    -0.1211    -0.8129 C.3     
   9 C9             4.6632     1.3230    -0.4026 C.2     
  10 N10            3.5577     2.0071    -0.0282 N.am    
  11 N11            1.0978     3.4061     0.0085 N.pl3   
  12 N12           -1.2013    -0.6912     0.0077 N.pl3   
  13 C13            3.2750    -2.1598    -0.4803 C.3     
  14 O14            5.7477     1.8667    -0.4080 O.2     
  15 C15           -2.4664     0.0473     0.0215 C.3     
  16 C16           -3.6341    -0.9414     0.0253 C.3     
  17 C17           -4.9553    -0.1701     0.0398 C.3     
  18 C18           -6.1230    -1.1588     0.0435 C.3     
  19 C19            4.6055    -2.8306    -0.7058 C.ar    
  20 C20            5.2307    -3.5228     0.3159 C.ar    
  21 C21            5.2286    -2.7727    -1.9451 C.ar    
  22 C22            6.4471    -3.3982    -2.1193 C.ar    
  23 N23            7.0226    -4.0476    -1.1253 N.ar    
  24 C24            6.4580    -4.1293     0.0698 C.ar    
  25 N25            7.0998    -4.8238     1.0887 N.3     
  26 C26            8.3781    -5.3806     0.6228 C.3     
  27 C27            9.0774    -6.0840     1.7890 C.3     
  28 O28            8.2109    -7.0895     2.3215 O.3     
  29 C29            6.9568    -6.5820     2.7853 C.3     
  30 C30            6.2360    -5.8836     1.6292 C.3     
  31 H31            5.4855    -0.6282    -0.6543 H       
  32 H32            4.2706    -0.1741    -1.8693 H       
  33 H33            3.6126     2.9424     0.2229 H       
  34 H34            1.9301     3.9043     0.0026 H       
  35 H35            0.2503     3.8777     0.0188 H       
  36 H36           -1.2059    -1.6612     0.0025 H       
  37 H37            2.7135    -2.7108     0.2742 H       
  38 H38            2.7123    -2.1459    -1.4138 H       
  39 H39           -2.5142     0.6694     0.9153 H       
  40 H40           -2.5281     0.6790    -0.8646 H       
  41 H41           -3.5863    -1.5635    -0.8684 H       
  42 H42           -3.5724    -1.5731     0.9114 H       
  43 H43           -5.0031     0.4520     0.9335 H       
  44 H44           -5.0170     0.4616    -0.8464 H       
  45 H45           -7.0643    -0.6093     0.0539 H       
  46 H46           -6.0752    -1.7809    -0.8502 H       
  47 H47           -6.0613    -1.7905     0.9297 H       
  48 H48            4.7723    -3.5909     1.2914 H       
  49 H49            4.7647    -2.2441    -2.7647 H       
  50 H50            6.9353    -3.3557    -3.0817 H       
  51 H51            8.1929    -6.0980    -0.1766 H       
  52 H52            9.0117    -4.5755     0.2507 H       
  53 H53            9.9984    -6.5474     1.4351 H       
  54 H54            9.3108    -5.3560     2.5660 H       
  55 H55            6.3441    -7.4055     3.1518 H       
  56 H56            7.1286    -5.8685     3.5912 H       
  57 H57            5.3060    -5.4457     1.9916 H       
  58 H58            6.0165    -6.6091     0.8458 H       
@<TRIPOS>BOND
   1    1    2 ar
   2    1    6 ar
   3    2    3 ar
   4    2   12 1
   5    3    4 ar
   6    4    5 ar
   7    4    7 1
   8    5    6 ar
   9    5   10 1
  10    6   11 1
  11    7    8 1
  12    7   13 1
  13    8    9 1
  14    8   31 1
  15    8   32 1
  16    9   10 am
  17    9   14 2
  18   10   33 1
  19   11   34 1
  20   11   35 1
  21   12   15 1
  22   12   36 1
  23   13   19 1
  24   13   37 1
  25   13   38 1
  26   15   16 1
  27   15   39 1
  28   15   40 1
  29   16   17 1
  30   16   41 1
  31   16   42 1
  32   17   18 1
  33   17   43 1
  34   17   44 1
  35   18   45 1
  36   18   46 1
  37   18   47 1
  38   19   20 ar
  39   19   21 ar
  40   20   24 ar
  41   20   48 1
  42   21   22 ar
  43   21   49 1
  44   22   23 ar
  45   22   50 1
  46   23   24 ar
  47   24   25 1
  48   25   26 1
  49   25   30 1
  50   26   27 1
  51   26   51 1
  52   26   52 1
  53   27   28 1
  54   27   53 1
  55   27   54 1
  56   28   29 1
  57   29   30 1
  58   29   55 1
  59   29   56 1
  60   30   57 1
  61   30   58 1

#	End of record

