#	Name: ASD01230851
#	Creating user name:	WinNT
#	Creation time:	15. 06. 2019 19:15

#	Modifying user name:	WinNT
#	Modification time:	15. 06. 2019 19:15

#	Program:	/corina/corina34_cracker 3.40 0067  02.08.2006

@<TRIPOS>MOLECULE
ASD01230851
  48   51    0    0    0
SMALL
NO_CHARGES


@<TRIPOS>ATOM
   1 C1            -0.2227     3.0969    -1.2940 C.3     
   2 C2            -0.7315     1.6946    -0.9492 C.3     
   3 C3            -2.2176     1.5582    -1.2489 C.3     
   4 C4            -2.6779     2.4796    -2.3699 C.3     
   5 N5            -1.5857     2.7731    -3.3006 N.pl3   
   6 C6            -0.4254     3.2917    -2.7869 C.2     
   7 C7            -1.7246     2.4851    -4.7259 C.3     
   8 C8            -1.3711     3.7340    -5.5352 C.3     
   9 S9             0.2838     4.3046    -5.0666 S.o2    
  10 N10            0.4377     3.9367    -3.4687 N.am    
  11 C11            1.2415     3.2097    -0.9555 C.ar    
  12 O12            1.2792     3.5144    -5.7021 O.2     
  13 O13            0.3479     5.7237    -5.1036 O.2     
  14 C14            1.6671     4.1525    -0.0381 C.ar    
  15 C15            3.0087     4.2579     0.2739 C.ar    
  16 C16            3.9293     3.4166    -0.3342 C.ar    
  17 C17            3.4995     2.4713    -1.2545 C.ar    
  18 C18            2.1562     2.3662    -1.5588 C.ar    
  19 O19            5.2496     3.5185    -0.0294 O.3     
  20 C20            5.6123     4.3828     0.9544 C.ar    
  21 C21            5.6535     3.9558     2.2738 C.ar    
  22 C22            6.0231     4.8379     3.2732 C.ar    
  23 C23            6.3510     6.1460     2.9564 C.ar    
  24 C24            6.3100     6.5717     1.6421 C.ar    
  25 C25            5.9474     5.6921     0.6402 C.ar    
  26 C26            6.7525     7.1062     4.0462 C.3     
  27 F27            6.0638     4.4238     4.5586 F       
  28 H28           -0.7904     3.8446    -0.7401 H       
  29 H29           -0.1799     0.9602    -1.5361 H       
  30 H30           -0.5619     1.5036     0.1105 H       
  31 H31           -2.4261     0.5268    -1.5331 H       
  32 H32           -2.7817     1.7932    -0.3463 H       
  33 H33           -3.4915     2.0002    -2.9144 H       
  34 H34           -3.0398     3.4129    -1.9387 H       
  35 H35           -1.0519     1.6723    -4.9997 H       
  36 H36           -2.7529     2.1931    -4.9391 H       
  37 H37           -1.3856     3.4945    -6.5985 H       
  38 H38           -2.0985     4.5191    -5.3288 H       
  39 H39            0.9502     4.8074     0.4347 H       
  40 H40            3.3407     4.9948     0.9903 H       
  41 H41            4.2141     1.8152    -1.7293 H       
  42 H42            1.8210     1.6304    -2.2747 H       
  43 H43            5.3971     2.9361     2.5203 H       
  44 H44            6.5658     7.5921     1.3975 H       
  45 H45            5.9158     6.0261    -0.3864 H       
  46 H46            7.8321     7.0624     4.1895 H       
  47 H47            6.4643     8.1185     3.7628 H       
  48 H48            6.2513     6.8323     4.9746 H       
@<TRIPOS>BOND
   1    1    2 1
   2    1   11 1
   3    1    6 1
   4    1   28 1
   5    2    3 1
   6    2   29 1
   7    2   30 1
   8    3    4 1
   9    3   31 1
  10    3   32 1
  11    4    5 1
  12    4   33 1
  13    4   34 1
  14    5    6 1
  15    5    7 1
  16    6   10 2
  17    7    8 1
  18    7   35 1
  19    7   36 1
  20    8    9 1
  21    8   37 1
  22    8   38 1
  23    9   10 am
  24    9   12 2
  25    9   13 2
  26   11   14 ar
  27   11   18 ar
  28   14   15 ar
  29   14   39 1
  30   15   16 ar
  31   15   40 1
  32   16   17 ar
  33   16   19 1
  34   17   18 ar
  35   17   41 1
  36   18   42 1
  37   19   20 1
  38   20   21 ar
  39   20   25 ar
  40   21   22 ar
  41   21   43 1
  42   22   23 ar
  43   22   27 1
  44   23   24 ar
  45   23   26 1
  46   24   25 ar
  47   24   44 1
  48   25   45 1
  49   26   46 1
  50   26   47 1
  51   26   48 1

#	End of record

