#	Name: ASD01812637
#	Creating user name:	WinNT
#	Creation time:	15. 06. 2019 19:28

#	Modifying user name:	WinNT
#	Modification time:	15. 06. 2019 19:28

#	Program:	/corina/corina34_cracker 3.40 0067  02.08.2006

@<TRIPOS>MOLECULE
ASD01812637
  50   54    0    0    0
SMALL
NO_CHARGES


@<TRIPOS>ATOM
   1 O1            -0.0163     1.3521     0.0095 O.3     
   2 C2             0.0021    -0.0041     0.0020 C.ar    
   3 C3             1.2105    -0.6847    -0.0132 C.ar    
   4 C4             1.2312    -2.0655    -0.0208 C.ar    
   5 C5             0.0448    -2.7828    -0.0134 C.ar    
   6 C6            -1.1603    -2.1223     0.0012 C.ar    
   7 C7            -1.2004    -0.7252     0.0154 C.ar    
   8 C8            -2.5947    -2.5892     0.0109 C.3     
   9 N9            -3.4200    -1.3759     0.0246 N.am    
  10 C10           -2.6104    -0.3028     0.0371 C.2     
  11 C11           -4.8845    -1.3401     0.0373 C.3     
  12 C12           -5.3745    -1.3356     1.4624 C.ar    
  13 O13           -2.9891     0.8525     0.0489 O.2     
  14 C14           -5.5695    -0.1356     2.1212 C.ar    
  15 C15           -6.0186    -0.1282     3.4273 C.ar    
  16 C16           -6.2741    -1.3273     4.0788 C.ar    
  17 C17           -6.0773    -2.5305     3.4148 C.ar    
  18 C18           -5.6336    -2.5313     2.1068 C.ar    
  19 N19           -6.7295    -1.3230     5.4046 N.pl3   
  20 C20           -7.0098    -2.4137     6.1533 C.2     
  21 N21           -6.9690    -0.1884     6.1905 N.2     
  22 C22           -7.3830    -0.5853     7.3669 C.2     
  23 C23           -7.4178    -1.9841     7.3699 C.2     
  24 C24            1.1751     2.0066     0.0016 C.ar    
  25 C25            1.7726     2.3475    -1.2026 C.ar    
  26 C26            2.9834     3.0132    -1.2083 C.ar    
  27 C27            3.6006     3.3400    -0.0149 C.ar    
  28 C28            3.0088     3.0017     1.1880 C.ar    
  29 C29            1.7938     2.3403     1.2000 C.ar    
  30 F30            1.2125     2.0145     2.3752 F       
  31 N31            1.1138     1.9981    -2.4813 N.pl3   
  32 O32            1.6388     2.2977    -3.5387 O.2     
  33 O33            0.0466     1.4110    -2.4760 O.2     
  34 H34            2.1388    -0.1327    -0.0194 H       
  35 H35            2.1758    -2.5889    -0.0330 H       
  36 H36            0.0677    -3.8626    -0.0195 H       
  37 H37           -2.8042    -3.1749    -0.8841 H       
  38 H38           -2.7889    -3.1846     0.9030 H       
  39 H39           -5.2303    -0.4388    -0.4687 H       
  40 H40           -5.2739    -2.2182    -0.4780 H       
  41 H41           -5.3702     0.7969     1.6139 H       
  42 H42           -6.1704     0.8094     3.9414 H       
  43 H43           -6.2753    -3.4649     3.9190 H       
  44 H44           -5.4848    -3.4669     1.5881 H       
  45 H45           -6.9239    -3.4427     5.8369 H       
  46 H46           -7.6490     0.0562     8.1939 H       
  47 H47           -7.7153    -2.6104     8.1979 H       
  48 H48            3.4486     3.2782    -2.1462 H       
  49 H49            4.5469     3.8603    -0.0224 H       
  50 H50            3.4931     3.2578     2.1187 H       
@<TRIPOS>BOND
   1    1    2 1
   2    1   24 1
   3    2    3 ar
   4    2    7 ar
   5    3    4 ar
   6    3   34 1
   7    4    5 ar
   8    4   35 1
   9    5    6 ar
  10    5   36 1
  11    6    8 1
  12    6    7 ar
  13    7   10 1
  14    8    9 1
  15    8   37 1
  16    8   38 1
  17    9   10 am
  18    9   11 1
  19   10   13 2
  20   11   12 1
  21   11   39 1
  22   11   40 1
  23   12   14 ar
  24   12   18 ar
  25   14   15 ar
  26   14   41 1
  27   15   16 ar
  28   15   42 1
  29   16   17 ar
  30   16   19 1
  31   17   18 ar
  32   17   43 1
  33   18   44 1
  34   19   21 1
  35   19   20 1
  36   20   23 2
  37   20   45 1
  38   21   22 2
  39   22   23 1
  40   22   46 1
  41   23   47 1
  42   24   25 ar
  43   24   29 ar
  44   25   26 ar
  45   25   31 1
  46   26   27 ar
  47   26   48 1
  48   27   28 ar
  49   27   49 1
  50   28   29 ar
  51   28   50 1
  52   29   30 1
  53   31   32 2
  54   31   33 2

#	End of record

