#	Name: ASD03092561
#	Creating user name:	WinNT
#	Creation time:	15. 06. 2019 20:32

#	Modifying user name:	WinNT
#	Modification time:	15. 06. 2019 20:32

#	Program:	/corina/corina34_cracker 3.40 0067  02.08.2006

@<TRIPOS>MOLECULE
ASD03092561
  35   37    0    0    0
SMALL
NO_CHARGES


@<TRIPOS>ATOM
   1 O1            -0.0143     1.2046     0.0087 O.3     
   2 N2             0.0021    -0.0041     0.0020 N.2     
   3 C3             1.2144    -0.4758    -0.0121 C.2     
   4 C4             2.0821     0.6409    -0.0144 C.2     
   5 C5             1.2324     1.7151    -0.0005 C.2     
   6 C6             1.6062     3.1404     0.0032 C.2     
   7 O7             2.7790     3.4615    -0.0067 O.2     
   8 N8             0.6482     4.0883     0.0174 N.am    
   9 C9             1.0198     5.5054     0.0211 C.3     
  10 N10           -3.6309     8.6654     0.3563 N.pl3   
  11 C11           -3.7571     8.7530     1.7160 C.2     
  12 C12           -2.7623     8.0772     2.3123 C.2     
  13 C13           -1.9311     7.5105     1.2475 C.ar    
  14 C14           -0.7761     6.7261     1.2314 C.ar    
  15 C15           -0.2271     6.3516     0.0377 C.ar    
  16 C16           -0.8084     6.7449    -1.1602 C.ar    
  17 C17           -1.9476     7.5192    -1.1673 C.ar    
  18 C18           -2.5237     7.9120     0.0366 C.ar    
  19 C19           -4.8507     9.4981     2.4371 C.3     
  20 C20            1.6158    -1.9283    -0.0230 C.3     
  21 Cl21           3.8180     0.6485    -0.0304 Cl      
  22 H22           -0.2874     3.8322     0.0253 H       
  23 H23            1.6177     5.7219     0.9064 H       
  24 H24            1.6002     5.7311    -0.8735 H       
  25 H25           -4.2340     9.0703    -0.2866 H       
  26 H26           -2.6047     7.9713     3.3755 H       
  27 H27           -0.3179     6.4171     2.1593 H       
  28 H28           -0.3627     6.4410    -2.0958 H       
  29 H29           -2.3922     7.8203    -2.1044 H       
  30 H30           -5.6924     8.8281     2.6124 H       
  31 H31           -4.4726     9.8639     3.3917 H       
  32 H32           -5.1780    10.3413     1.8287 H       
  33 H33            1.7029    -2.2734    -1.0532 H       
  34 H34            2.5751    -2.0440     0.4813 H       
  35 H35            0.8595    -2.5181     0.4951 H       
@<TRIPOS>BOND
   1    1    2 1
   2    1    5 1
   3    2    3 2
   4    3    4 1
   5    3   20 1
   6    4    5 2
   7    4   21 1
   8    5    6 1
   9    6    7 2
  10    6    8 am
  11    8    9 1
  12    8   22 1
  13    9   15 1
  14    9   23 1
  15    9   24 1
  16   10   11 1
  17   10   18 1
  18   10   25 1
  19   11   12 2
  20   11   19 1
  21   12   13 1
  22   12   26 1
  23   13   14 ar
  24   13   18 ar
  25   14   15 ar
  26   14   27 1
  27   15   16 ar
  28   16   17 ar
  29   16   28 1
  30   17   18 ar
  31   17   29 1
  32   19   30 1
  33   19   31 1
  34   19   32 1
  35   20   33 1
  36   20   34 1
  37   20   35 1

#	End of record

