#	Name: ASD07930138
#	Creating user name:	WinNT
#	Creation time:	15. 06. 2019 21:11

#	Modifying user name:	WinNT
#	Modification time:	15. 06. 2019 21:11

#	Program:	/corina/corina34_cracker 3.40 0067  02.08.2006

@<TRIPOS>MOLECULE
ASD07930138
  55   59    0    0    0
SMALL
NO_CHARGES


@<TRIPOS>ATOM
   1 C1            -0.0180     1.4754     0.0102 C.2     
   2 C2             0.0021    -0.0041     0.0020 C.2     
   3 N3             1.1814     2.1509     0.0023 N.am    
   4 N4             1.1194    -0.6400     0.4288 N.am    
   5 C5             2.2493     0.1650     0.9143 C.3     
   6 C6             2.4261     1.3707    -0.0208 C.3     
   7 C7            -1.2008     2.1485     0.0195 C.2     
   8 C8            -1.2247     3.5486     0.0291 C.2     
   9 C9            -0.0458     4.2425     0.0303 C.2     
  10 C10            1.2139     3.4948     0.0143 C.2     
  11 O11           -0.9642    -0.6358    -0.3794 O.2     
  12 O12            2.2807     4.0852     0.0118 O.2     
  13 C13            0.4239     6.4402     1.0348 C.2     
  14 N14            0.2552     7.6848     0.6804 N.2     
  15 C15           -0.3161     7.7283    -0.5326 C.2     
  16 C16           -0.5113     6.4636    -0.9513 C.2     
  17 N17           -0.0431     5.6402     0.0404 N.pl3   
  18 C18           -0.6774     8.9771    -1.2948 C.3     
  19 C19            1.2002    -2.1026     0.4064 C.3     
  20 C20            1.7676    -2.5615    -0.9383 C.3     
  21 O21            3.1161    -2.1063    -1.0666 O.3     
  22 O22            7.0342    -1.8660    -3.5420 O.3     
  23 C23            7.1257    -0.8225    -2.5573 C.3     
  24 C24            6.0268    -1.2138    -1.5410 C.3     
  25 C25            5.0776    -2.0235    -2.4028 C.ar    
  26 C26            5.7627    -2.3534    -3.5637 C.ar    
  27 C27            5.1071    -3.0962    -4.5452 C.ar    
  28 C28            3.7998    -3.5008    -4.3566 C.ar    
  29 C29            3.1279    -3.1742    -3.1939 C.ar    
  30 C30            3.7708    -2.4315    -2.2128 C.ar    
  31 C31            6.6055    -2.0693    -0.4122 C.3     
  32 F32            7.5767    -1.3360     0.2778 F       
  33 F33            5.5817    -2.4326     0.4693 F       
  34 F34            7.1871    -3.2217    -0.9517 F       
  35 F35            5.7535    -3.4214    -5.6861 F       
  36 H36            2.0426     0.5136     1.9261 H       
  37 H37            3.1572    -0.4381     0.9099 H       
  38 H38            2.6247     1.0242    -1.0350 H       
  39 H39            3.2543     1.9881     0.3270 H       
  40 H40           -2.1297     1.5976     0.0190 H       
  41 H41           -2.1668     4.0767     0.0353 H       
  42 H42            0.8650     6.1025     1.9610 H       
  43 H43           -0.9521     6.1566    -1.8883 H       
  44 H44            0.1651     9.2797    -1.9167 H       
  45 H45           -1.5430     8.7793    -1.9270 H       
  46 H46           -0.9156     9.7756    -0.5921 H       
  47 H47            1.8522    -2.4428     1.2110 H       
  48 H48            0.2042    -2.5236     0.5432 H       
  49 H49            1.7451    -3.6500    -0.9897 H       
  50 H50            1.1658    -2.1470    -1.7471 H       
  51 H51            8.1076    -0.8233    -2.0839 H       
  52 H52            6.9114     0.1489    -3.0029 H       
  53 H53            5.5319    -0.3283    -1.1422 H       
  54 H54            3.2999    -4.0753    -5.1223 H       
  55 H55            2.1067    -3.4948    -3.0494 H       
@<TRIPOS>BOND
   1    1    2 1
   2    1    3 1
   3    1    7 2
   4    2    4 am
   5    2   11 2
   6    3    6 1
   7    3   10 am
   8    4    5 1
   9    4   19 1
  10    5    6 1
  11    5   36 1
  12    5   37 1
  13    6   38 1
  14    6   39 1
  15    7    8 1
  16    7   40 1
  17    8    9 2
  18    8   41 1
  19    9   10 1
  20    9   17 1
  21   10   12 2
  22   13   14 2
  23   13   17 1
  24   13   42 1
  25   14   15 1
  26   15   16 2
  27   15   18 1
  28   16   17 1
  29   16   43 1
  30   18   44 1
  31   18   45 1
  32   18   46 1
  33   19   20 1
  34   19   47 1
  35   19   48 1
  36   20   21 1
  37   20   49 1
  38   20   50 1
  39   21   30 1
  40   22   23 1
  41   22   26 1
  42   23   24 1
  43   23   51 1
  44   23   52 1
  45   24   25 1
  46   24   31 1
  47   24   53 1
  48   25   26 ar
  49   25   30 ar
  50   26   27 ar
  51   27   28 ar
  52   27   35 1
  53   28   29 ar
  54   28   54 1
  55   29   30 ar
  56   29   55 1
  57   31   32 1
  58   31   33 1
  59   31   34 1

#	End of record

