#	Name: ASD01870177
#	Creating user name:	WinNT
#	Creation time:	15. 06. 2019 19:38

#	Modifying user name:	WinNT
#	Modification time:	15. 06. 2019 19:38

#	Program:	/corina/corina34_cracker 3.40 0067  02.08.2006

@<TRIPOS>MOLECULE
ASD01870177
  62   66    0    0    0
SMALL
NO_CHARGES


@<TRIPOS>ATOM
   1 C1            -0.0168     1.3890     0.0097 C.ar    
   2 C2             0.0021    -0.0041     0.0020 C.ar    
   3 C3             1.1787    -0.6895    -0.0125 C.ar    
   4 C4             2.3941     0.0134    -0.0203 C.ar    
   5 C5             2.3756     1.4326    -0.0130 C.ar    
   6 C6             1.1407     2.1050     0.0025 C.ar    
   7 C7             3.6272    -0.6637    -0.0358 C.ar    
   8 C8             4.7900     0.0351    -0.0436 C.ar    
   9 C9             4.7882     1.4439    -0.0361 C.ar    
  10 C10            3.5864     2.1337    -0.0214 C.ar    
  11 C11            5.8880     2.4286    -0.0415 C.2     
  12 N12            5.3952     3.6790    -0.0301 N.am    
  13 C13            3.9298     3.6021    -0.0168 C.3     
  14 C14            6.1876     4.9112    -0.0312 C.3     
  15 C15            7.0575     4.9570    -1.2890 C.3     
  16 C16            7.8851     6.2438    -1.2901 C.3     
  17 C17            8.7800     6.2758    -0.0495 C.3     
  18 C18            7.9100     6.2300     1.2082 C.3     
  19 C19            7.0825     4.9431     1.2094 C.3     
  20 C20            3.6565    -2.1704    -0.0431 C.3     
  21 C21            3.5284    -2.6685    -1.4596 C.ar    
  22 C22            4.6605    -2.8766    -2.2350 C.ar    
  23 C23            4.4979    -3.3352    -3.5309 C.ar    
  24 C24            3.2152    -3.5702    -4.0086 C.ar    
  25 N25            2.1603    -3.3599    -3.2387 N.ar    
  26 C26            2.2837    -2.9283    -1.9981 C.ar    
  27 O27            7.0708     2.1485    -0.0540 O.2     
  28 O28            6.2217     4.9271    -2.4476 O.3     
  29 C29            3.3560     4.2807    -1.2622 C.3     
  30 O30            3.0425    -4.0194    -5.2771 O.3     
  31 C31            1.6987    -4.2419    -5.7092 C.3     
  32 C32            3.3796     4.2672     1.2465 C.3     
  33 H33           -0.9637     1.9083     0.0170 H       
  34 H34           -0.9306    -0.5486     0.0080 H       
  35 H35            1.1770    -1.7695    -0.0175 H       
  36 H36            1.1108     3.1846     0.0079 H       
  37 H37            5.7302    -0.4960    -0.0555 H       
  38 H38            5.5198     5.7726    -0.0198 H       
  39 H39            7.7253     4.0956    -1.3004 H       
  40 H40            8.5048     6.2765    -2.1862 H       
  41 H41            7.2173     7.1053    -1.2787 H       
  42 H42            9.4478     5.4144    -0.0610 H       
  43 H43            9.3695     7.1926    -0.0504 H       
  44 H44            8.5476     6.2528     2.0920 H       
  45 H45            7.2422     7.0914     1.2197 H       
  46 H46            6.4627     4.9105     2.1054 H       
  47 H47            7.7503     4.0817     1.1979 H       
  48 H48            4.5991    -2.5175     0.3803 H       
  49 H49            2.8279    -2.5529     0.5529 H       
  50 H50            5.6458    -2.6847    -1.8365 H       
  51 H51            5.3571    -3.5075    -4.1622 H       
  52 H52            1.3995    -2.7678    -1.3990 H       
  53 H53            6.7071     4.9535    -3.2836 H       
  54 H54            3.7321     3.7803    -2.1545 H       
  55 H55            2.2680     4.2176    -1.2416 H       
  56 H56            3.6590     5.3276    -1.2777 H       
  57 H57            1.1388    -3.3086    -5.6502 H       
  58 H58            1.7026    -4.5988    -6.7391 H       
  59 H59            1.2297    -4.9881    -5.0678 H       
  60 H60            3.6829     5.3139     1.2676 H       
  61 H61            2.2914     4.2042     1.2457 H       
  62 H62            3.7724     3.7572     2.1261 H       
@<TRIPOS>BOND
   1    1    2 ar
   2    1    6 ar
   3    1   33 1
   4    2    3 ar
   5    2   34 1
   6    3    4 ar
   7    3   35 1
   8    4    5 ar
   9    4    7 ar
  10    5    6 ar
  11    5   10 ar
  12    6   36 1
  13    7    8 ar
  14    7   20 1
  15    8    9 ar
  16    8   37 1
  17    9   10 ar
  18    9   11 1
  19   10   13 1
  20   11   12 am
  21   11   27 2
  22   12   13 1
  23   12   14 1
  24   13   29 1
  25   13   32 1
  26   14   15 1
  27   14   19 1
  28   14   38 1
  29   15   16 1
  30   15   28 1
  31   15   39 1
  32   16   17 1
  33   16   40 1
  34   16   41 1
  35   17   18 1
  36   17   42 1
  37   17   43 1
  38   18   19 1
  39   18   44 1
  40   18   45 1
  41   19   46 1
  42   19   47 1
  43   20   21 1
  44   20   48 1
  45   20   49 1
  46   21   22 ar
  47   21   26 ar
  48   22   23 ar
  49   22   50 1
  50   23   24 ar
  51   23   51 1
  52   24   25 ar
  53   24   30 1
  54   25   26 ar
  55   26   52 1
  56   28   53 1
  57   29   54 1
  58   29   55 1
  59   29   56 1
  60   30   31 1
  61   31   57 1
  62   31   58 1
  63   31   59 1
  64   32   60 1
  65   32   61 1
  66   32   62 1

#	End of record

