#	Name: ASD05060009
#	Creating user name:	WinNT
#	Creation time:	15. 06. 2019 20:56

#	Modifying user name:	WinNT
#	Modification time:	15. 06. 2019 20:56

#	Program:	/corina/corina34_cracker 3.40 0067  02.08.2006

@<TRIPOS>MOLECULE
ASD05060009
 123  123    0    0    0
SMALL
NO_CHARGES


@<TRIPOS>ATOM
   1 N1            -2.7141     4.6402    -2.3289 N.3     
   2 N2            -3.0962     3.4983    -3.1437 N.3     
   3 C3            -4.5571     3.4060    -3.2682 C.3     
   4 C4            -5.1166     2.6689    -2.0787 C.2     
   5 N5            -6.2403     3.1546    -1.4727 N.am    
   6 C6            -6.7247     2.3729    -0.3124 C.3     
   7 C7            -7.5754     3.2690     0.5504 C.2     
   8 N8            -7.6031     3.0608     1.8953 N.am    
   9 C9            -8.4533     3.9715     2.6875 C.3     
  10 C10           -7.6434     4.5207     3.8335 C.2     
  11 N11           -7.8241     5.8235     4.2016 N.am    
  12 C12           -6.9944     6.2839     5.3380 C.3     
  13 C13           -6.2498     7.5255     4.9194 C.2     
  14 N14           -5.0266     7.7771     5.4609 N.am    
  15 C15           -4.3451     9.0075     5.0119 C.3     
  16 C16           -2.9533     8.6535     4.5548 C.2     
  17 N17           -2.3104     9.4952     3.6923 N.am    
  18 C18           -0.9494     9.0742     3.2892 C.3     
  19 C19           -0.8733     9.0712     1.7840 C.2     
  20 C20           -0.2095     7.9456     1.0755 C.2     
  21 C21           -0.1362     7.9413    -0.4298 C.3     
  22 N22           -0.3386     6.5608    -0.9128 N.am    
  23 C23           -1.0775     6.4141    -2.0464 C.2     
  24 C24           -1.3211     5.0287    -2.5874 C.3     
  25 O25           -1.5338     7.3846    -2.6130 O.2     
  26 O26            0.2714     7.0346     1.7062 O.2     
  27 O27           -1.3519     9.9834     1.1533 O.2     
  28 O28           -2.4139     7.6401     4.9458 O.2     
  29 O29           -6.7335     8.2895     4.1112 O.2     
  30 O30           -6.8455     3.8188     4.4179 O.2     
  31 O31           -8.2268     4.1632     0.0533 O.2     
  32 O32           -4.5791     1.6626    -1.6672 O.2     
  33 C33            0.0801    10.0551     3.8537 C.3     
  34 C34            0.0712     9.9805     5.3818 C.3     
  35 C35            0.5449     8.5956     5.8275 C.3     
  36 C36            1.0090    11.0476     5.9500 C.3     
  37 C37           -0.3794     4.0391    -1.8983 C.3     
  38 O38           -0.5281     2.7478    -2.4918 O.3     
  39 C39           -8.9350     5.1227     1.8023 C.3     
  40 C40           -7.7291     5.8111     1.1598 C.3     
  41 C41           -7.2847     6.9841     2.0359 C.3     
  42 C42           -9.8526     4.5748     0.7075 C.3     
  43 C43           -7.5602     1.1890    -0.8035 C.3     
  44 C44           -6.6688     0.2283    -1.5930 C.3     
  45 C45           -7.5043    -0.9556    -2.0841 C.3     
  46 C46           -6.6129    -1.9163    -2.8736 C.3     
  47 N47           -7.4151    -3.0530    -3.3452 N.3     
  48 C48           -5.1232     9.6300     3.8509 C.3     
  49 C49           -5.0864     8.7001     2.6656 C.2     
  50 O50           -4.7052     7.5570     2.8033 O.2     
  51 N51           -5.4772     9.1387     1.4526 N.am    
  52 C52           -4.6110     5.5431    -4.5246 C.2     
  53 C53           -5.1544     4.8135    -3.3232 C.3     
  54 O54           -3.8266     4.9937    -5.2613 O.2     
  55 O55           -4.9985     6.8034    -4.7763 O.3     
  56 C56           -8.5584     5.3389     7.0143 C.2     
  57 C57           -7.8936     6.6032     6.5340 C.3     
  58 O58           -8.3359     4.2901     6.4571 O.2     
  59 O59           -9.3978     5.3779     8.0610 O.3     
  60 C60           -2.5821     8.2884    -0.6453 C.2     
  61 C61           -1.2286     8.8489    -0.9989 C.3     
  62 O62           -2.6650     7.2443    -0.0429 O.2     
  63 O63           -3.6955     8.9491    -0.9996 O.3     
  64 H64           -3.3400     5.4173    -2.4791 H       
  65 H65           -2.6578     3.5389    -4.0515 H       
  66 H66           -4.8107     2.8676    -4.1814 H       
  67 H67           -6.6903     3.9565    -1.7816 H       
  68 H68           -5.8744     2.0094     0.2646 H       
  69 H69           -7.0907     2.3503     2.3118 H       
  70 H70           -9.3116     3.4238     3.0764 H       
  71 H71           -8.4529     6.4073     3.7491 H       
  72 H72           -6.2824     5.5047     5.6103 H       
  73 H73           -4.6230     7.1783     6.1086 H       
  74 H74           -4.2889     9.7162     5.8381 H       
  75 H75           -2.7178    10.3129     3.3661 H       
  76 H76           -0.7494     8.0717     3.6676 H       
  77 H77            0.8423     8.3001    -0.7489 H       
  78 H78            0.0361     5.7974    -0.4463 H       
  79 H79           -1.1348     5.0200    -3.6613 H       
  80 H80            1.0715     9.7947     3.4829 H       
  81 H81           -0.1715    11.0676     3.5379 H       
  82 H82           -0.9406    10.1537     5.7482 H       
  83 H83            0.5386     8.5425     6.9162 H       
  84 H84           -0.1232     7.8354     5.4228 H       
  85 H85            1.5568     8.4224     5.4612 H       
  86 H86            0.6716    12.0342     5.6324 H       
  87 H87            1.0027    10.9944     7.0387 H       
  88 H88            2.0209    10.8743     5.5836 H       
  89 H89            0.6505     4.3762    -2.0150 H       
  90 H90           -0.6251     3.9821    -0.8379 H       
  91 H91            0.0402     2.0686    -2.1034 H       
  92 H92           -9.4836     5.8429     2.4094 H       
  93 H93           -6.9107     5.0973     1.0659 H       
  94 H94           -8.0049     6.1797     0.1718 H       
  95 H95           -6.7405     6.6055     2.9012 H       
  96 H96           -6.6364     7.6434     1.4589 H       
  97 H97           -8.1608     7.5389     2.3719 H       
  98 H98          -10.8787     4.5462     1.0741 H       
  99 H99           -9.7977     5.2201    -0.1692 H       
 100 H100          -9.5350     3.5676     0.4377 H       
 101 H101          -7.9888     0.6670     0.0520 H       
 102 H102          -8.3620     1.5521    -1.4465 H       
 103 H103          -6.2402     0.7503    -2.4485 H       
 104 H104          -5.8670    -0.1348    -0.9500 H       
 105 H105          -7.9329    -1.4776    -1.2286 H       
 106 H106          -8.3061    -0.5925    -2.7272 H       
 107 H107          -6.1843    -1.3943    -3.7291 H       
 108 H108          -5.8111    -2.2794    -2.2306 H       
 109 H109          -6.8486    -3.7025    -3.8699 H       
 110 H110          -7.8754    -3.5148    -2.5752 H       
 111 H111          -6.1578     9.7930     4.1529 H       
 112 H112          -4.6696    10.5831     3.5791 H       
 113 H113          -5.7821    10.0529     1.3425 H       
 114 H114          -5.4535     8.5401     0.6897 H       
 115 H115          -6.2395     4.7450    -3.3998 H       
 116 H116          -4.8877     5.3570    -2.4168 H       
 117 H117          -4.6230     7.2302    -5.5586 H       
 118 H118          -7.2916     7.0254     7.3387 H       
 119 H119          -8.6553     7.3228     6.2340 H       
 120 H120          -9.8002     4.5416     8.3325 H       
 121 H121          -1.1274     9.8484    -0.5759 H       
 122 H122          -1.1290     8.9014    -2.0831 H       
 123 H123          -4.5405     8.5503    -0.7507 H       
@<TRIPOS>BOND
   1    1    2 1
   2    1   24 1
   3    1   64 1
   4    2    3 1
   5    2   65 1
   6    3    4 1
   7    3   53 1
   8    3   66 1
   9    4    5 am
  10    4   32 2
  11    5    6 1
  12    5   67 1
  13    6    7 1
  14    6   43 1
  15    6   68 1
  16    7    8 am
  17    7   31 2
  18    8    9 1
  19    8   69 1
  20    9   10 1
  21    9   39 1
  22    9   70 1
  23   10   11 am
  24   10   30 2
  25   11   12 1
  26   11   71 1
  27   12   13 1
  28   12   57 1
  29   12   72 1
  30   13   14 am
  31   13   29 2
  32   14   15 1
  33   14   73 1
  34   15   16 1
  35   15   48 1
  36   15   74 1
  37   16   17 am
  38   16   28 2
  39   17   18 1
  40   17   75 1
  41   18   19 1
  42   18   33 1
  43   18   76 1
  44   19   20 1
  45   19   27 2
  46   20   21 1
  47   20   26 2
  48   21   22 1
  49   21   61 1
  50   21   77 1
  51   22   23 am
  52   22   78 1
  53   23   24 1
  54   23   25 2
  55   24   37 1
  56   24   79 1
  57   33   34 1
  58   33   80 1
  59   33   81 1
  60   34   35 1
  61   34   36 1
  62   34   82 1
  63   35   83 1
  64   35   84 1
  65   35   85 1
  66   36   86 1
  67   36   87 1
  68   36   88 1
  69   37   38 1
  70   37   89 1
  71   37   90 1
  72   38   91 1
  73   39   40 1
  74   39   42 1
  75   39   92 1
  76   40   41 1
  77   40   93 1
  78   40   94 1
  79   41   95 1
  80   41   96 1
  81   41   97 1
  82   42   98 1
  83   42   99 1
  84   42  100 1
  85   43   44 1
  86   43  101 1
  87   43  102 1
  88   44   45 1
  89   44  103 1
  90   44  104 1
  91   45   46 1
  92   45  105 1
  93   45  106 1
  94   46   47 1
  95   46  107 1
  96   46  108 1
  97   47  109 1
  98   47  110 1
  99   48   49 1
 100   48  111 1
 101   48  112 1
 102   49   50 2
 103   49   51 am
 104   51  113 1
 105   51  114 1
 106   52   53 1
 107   52   54 2
 108   52   55 1
 109   53  115 1
 110   53  116 1
 111   55  117 1
 112   56   57 1
 113   56   58 2
 114   56   59 1
 115   57  118 1
 116   57  119 1
 117   59  120 1
 118   60   61 1
 119   60   62 2
 120   60   63 1
 121   61  121 1
 122   61  122 1
 123   63  123 1

#	End of record

