#	Name: ASD04370031
#	Creating user name:	WinNT
#	Creation time:	15. 06. 2019 20:49

#	Modifying user name:	WinNT
#	Modification time:	15. 06. 2019 20:49

#	Program:	/corina/corina34_cracker 3.40 0067  02.08.2006

@<TRIPOS>MOLECULE
ASD04370031
  57   57    0    0    0
SMALL
NO_CHARGES


@<TRIPOS>ATOM
   1 C1             3.2665    -0.4330    -0.7076 C.2     
   2 C2             1.9337     0.2213    -0.9655 C.3     
   3 C3             0.9276    -0.2365     0.0924 C.3     
   4 C4            -0.4556     0.3253    -0.2424 C.3     
   5 O5             3.4224    -1.1301     0.2804 O.co2   
   6 O6             4.1874    -0.2693    -1.4897 O.co2   
   7 N7            -1.4387    -0.1875     0.7212 N.4     
   8 C8            -1.1266     0.3285     2.0607 C.3     
   9 C9            -2.7844     0.2517     0.3285 C.3     
  10 C10           -1.3882    -1.6556     0.7380 C.3     
  11 N11            1.3472     0.2508     1.4087 N.am    
  12 C12            1.5401     1.5696     1.6089 C.2     
  13 C13            2.0815     2.0604     2.9269 C.3     
  14 C14            2.2039     3.5851     2.8920 C.3     
  15 C15            2.7536     4.0834     4.2301 C.3     
  16 C16            2.8760     5.6081     4.1952 C.3     
  17 C17            3.4257     6.1063     5.5332 C.3     
  18 C18            3.5481     7.6310     5.4984 C.3     
  19 O19            1.2779     2.3614     0.7284 O.2     
  20 C20            4.0895     8.1218     6.8163 C.ar    
  21 C21            5.4539     8.2476     6.9993 C.ar    
  22 C22            5.9505     8.6978     8.2082 C.ar    
  23 C23            5.0827     9.0225     9.2341 C.ar    
  24 C24            3.7183     8.8975     9.0509 C.ar    
  25 C25            3.2215     8.4515     7.8404 C.ar    
  26 H26            2.0451     1.3045    -0.9162 H       
  27 H27            1.5750    -0.0624    -1.9549 H       
  28 H28            0.8841    -1.3256     0.1051 H       
  29 H29           -0.4283     1.4136    -0.1892 H       
  30 H30           -0.7388     0.0176    -1.2490 H       
  31 H31           -0.9681     1.4056     2.0073 H       
  32 H32           -1.9569     0.1163     2.7344 H       
  33 H33           -0.2232    -0.1536     2.4344 H       
  34 H34           -3.0159    -0.1312    -0.6654 H       
  35 H35           -3.5138    -0.1288     1.0435 H       
  36 H36           -2.8218     1.3410     0.3161 H       
  37 H37           -0.3897    -1.9815     1.0294 H       
  38 H38           -2.1177    -2.0361     1.4530 H       
  39 H39           -1.6198    -2.0385    -0.2559 H       
  40 H40            1.4862    -0.3756     2.1361 H       
  41 H41            1.4040     1.7685     3.7293 H       
  42 H42            3.0634     1.6210     3.1025 H       
  43 H43            2.8814     3.8769     2.0895 H       
  44 H44            1.2220     4.0245     2.7163 H       
  45 H45            2.0761     3.7915     5.0325 H       
  46 H46            3.7355     3.6440     4.4057 H       
  47 H47            3.5535     5.8999     3.3927 H       
  48 H48            1.8941     6.0475     4.0195 H       
  49 H49            2.7481     5.8145     6.3357 H       
  50 H50            4.4076     5.6669     5.7089 H       
  51 H51            4.2256     7.9229     4.6959 H       
  52 H52            2.5661     8.0704     5.3227 H       
  53 H53            6.1319     7.9939     6.1978 H       
  54 H54            7.0165     8.7954     8.3514 H       
  55 H55            5.4708     9.3735    10.1789 H       
  56 H56            3.0403     9.1509     9.8525 H       
  57 H57            2.1553     8.3573     7.6960 H       
@<TRIPOS>BOND
   1    1    2 1
   2    1    5 ar
   3    1    6 ar
   4    2    3 1
   5    2   26 1
   6    2   27 1
   7    3    4 1
   8    3   11 1
   9    3   28 1
  10    4    7 1
  11    4   29 1
  12    4   30 1
  13    7    8 1
  14    7    9 1
  15    7   10 1
  16    8   31 1
  17    8   32 1
  18    8   33 1
  19    9   34 1
  20    9   35 1
  21    9   36 1
  22   10   37 1
  23   10   38 1
  24   10   39 1
  25   11   12 am
  26   11   40 1
  27   12   13 1
  28   12   19 2
  29   13   14 1
  30   13   41 1
  31   13   42 1
  32   14   15 1
  33   14   43 1
  34   14   44 1
  35   15   16 1
  36   15   45 1
  37   15   46 1
  38   16   17 1
  39   16   47 1
  40   16   48 1
  41   17   18 1
  42   17   49 1
  43   17   50 1
  44   18   20 1
  45   18   51 1
  46   18   52 1
  47   20   21 ar
  48   20   25 ar
  49   21   22 ar
  50   21   53 1
  51   22   23 ar
  52   22   54 1
  53   23   24 ar
  54   23   55 1
  55   24   25 ar
  56   24   56 1
  57   25   57 1

#	End of record

