#	Name: ASD05430411
#	Creating user name:	WinNT
#	Creation time:	15. 06. 2019 21:00

#	Modifying user name:	WinNT
#	Modification time:	15. 06. 2019 21:00

#	Program:	/corina/corina34_cracker 3.40 0067  02.08.2006

@<TRIPOS>MOLECULE
ASD05430411
  62   66    0    0    0
SMALL
NO_CHARGES


@<TRIPOS>ATOM
   1 C1            -0.2572     1.0798     1.1458 C.ar    
   2 C2            -0.0144    -0.0164     0.3174 C.ar    
   3 C3            -0.9781    -0.4299    -0.5947 C.ar    
   4 C4            -2.1776     0.2401    -0.6856 C.ar    
   5 C5            -2.4289     1.3409     0.1427 C.ar    
   6 C6            -1.4602     1.7535     1.0652 C.ar    
   7 C7            -4.8659     1.3645    -0.0482 C.2     
   8 C8            -3.7079     2.0574     0.0475 C.2     
   9 C9            -6.0598     2.0725    -0.3009 C.2     
  10 O10            0.6883     1.4813     2.0364 O.3     
  11 C11            0.3725     2.6109     2.8527 C.3     
  12 C12            1.3691    -2.0568     0.5279 C.2     
  13 N13            1.2033    -0.7013     0.4049 N.pl3   
  14 C14            2.6953    -2.2845     0.5771 C.2     
  15 N15            3.3267    -1.1045     0.4871 N.2     
  16 C16            2.4443    -0.1485     0.3835 C.2     
  17 C17            3.3561    -3.6323     0.7108 C.3     
  18 N18           -7.2202     1.3781    -0.5315 N.pl3   
  19 C19           -8.8847     2.2537     1.0046 C.ar    
  20 C20          -10.0725     2.8793     1.3346 C.ar    
  21 C21           -8.0404     1.8011     2.0014 C.ar    
  22 C22           -8.3832     1.9734     3.3291 C.ar    
  23 C23           -9.5725     2.5998     3.6608 C.ar    
  24 C24          -10.4171     3.0531     2.6616 C.ar    
  25 F25           -9.9089     2.7683     4.9583 F       
  26 C26           -4.8284    -0.1231     0.1122 C.3     
  27 C27           -6.2186    -0.7415     0.1269 C.3     
  28 C28           -7.1384    -0.0443    -0.8714 C.3     
  29 C29           -8.5129     2.0593    -0.4428 C.3     
  30 C30           -8.3907     3.4244    -1.1315 C.3     
  31 C31           -7.1328     4.1025    -0.6521 C.2     
  32 N32           -6.0647     3.3999    -0.3056 N.2     
  33 C33           -9.5842     1.2229    -1.1454 C.3     
  34 O34          -10.8443     1.8910    -1.0566 O.3     
  35 O35           -7.0979     5.3157    -0.5823 O.2     
  36 H36           -0.7855    -1.2788    -1.2341 H       
  37 H37           -2.9243    -0.0831    -1.3958 H       
  38 H38           -1.6497     2.6017     1.7063 H       
  39 H39           -3.7237     3.1372     0.0540 H       
  40 H40            0.1820     3.4761     2.2178 H       
  41 H41           -0.5154     2.3932     3.4464 H       
  42 H42            1.2101     2.8248     3.5167 H       
  43 H43            0.5863    -2.7990     0.5800 H       
  44 H44            2.6637     0.9053     0.2955 H       
  45 H45            3.5379    -4.0478    -0.2804 H       
  46 H46            4.3038    -3.5217     1.2378 H       
  47 H47            2.7046    -4.3024     1.2717 H       
  48 H48          -10.7311     3.2328     0.5551 H       
  49 H49           -7.1127     1.3125     1.7424 H       
  50 H50           -7.7237     1.6191     4.1076 H       
  51 H51          -11.3449     3.5422     2.9192 H       
  52 H52           -4.2599    -0.5526    -0.7126 H       
  53 H53           -4.3250    -0.3644     1.0484 H       
  54 H54           -6.1435    -1.7971    -0.1343 H       
  55 H55           -6.6403    -0.6504     1.1278 H       
  56 H56           -8.1324    -0.4891    -0.8244 H       
  57 H57           -6.7347    -0.1537    -1.8780 H       
  58 H58           -8.3415     3.2853    -2.2114 H       
  59 H59           -9.2552     4.0388    -0.8799 H       
  60 H60           -9.3146     1.0935    -2.1936 H       
  61 H61           -9.6558     0.2469    -0.6655 H       
  62 H62          -11.5718     1.4166    -1.4819 H       
@<TRIPOS>BOND
   1    1    2 ar
   2    1   10 1
   3    1    6 ar
   4    2    3 ar
   5    2   13 1
   6    3    4 ar
   7    3   36 1
   8    4    5 ar
   9    4   37 1
  10    5    6 ar
  11    5    8 1
  12    6   38 1
  13    7    8 2
  14    7   26 1
  15    7    9 1
  16    8   39 1
  17    9   18 1
  18    9   32 2
  19   10   11 1
  20   11   40 1
  21   11   41 1
  22   11   42 1
  23   12   13 1
  24   12   14 2
  25   12   43 1
  26   13   16 1
  27   14   15 1
  28   14   17 1
  29   15   16 2
  30   16   44 1
  31   17   45 1
  32   17   46 1
  33   17   47 1
  34   18   29 1
  35   18   28 1
  36   19   20 ar
  37   19   21 ar
  38   19   29 1
  39   20   24 ar
  40   20   48 1
  41   21   22 ar
  42   21   49 1
  43   22   23 ar
  44   22   50 1
  45   23   24 ar
  46   23   25 1
  47   24   51 1
  48   26   27 1
  49   26   52 1
  50   26   53 1
  51   27   28 1
  52   27   54 1
  53   27   55 1
  54   28   56 1
  55   28   57 1
  56   29   30 1
  57   29   33 1
  58   30   31 1
  59   30   58 1
  60   30   59 1
  61   31   32 1
  62   31   35 2
  63   33   34 1
  64   33   60 1
  65   33   61 1
  66   34   62 1

#	End of record

