#	Name: ASD01120042
#	Creating user name:	WinNT
#	Creation time:	15. 06. 2019 18:58

#	Modifying user name:	WinNT
#	Modification time:	15. 06. 2019 18:58

#	Program:	/corina/corina34_cracker 3.40 0067  02.08.2006

@<TRIPOS>MOLECULE
ASD01120042
  50   53    0    0    0
SMALL
NO_CHARGES


@<TRIPOS>ATOM
   1 C1            -0.0156     1.4016    -0.0366 C.ar    
   2 C2             0.0045     0.0001    -0.0582 C.ar    
   3 C3            -1.1692    -0.7205    -0.0490 C.ar    
   4 C4            -2.3943    -0.0433    -0.0178 C.ar    
   5 C5            -2.4068     1.3735     0.0039 C.ar    
   6 C6            -1.1995     2.0822    -0.0008 C.ar    
   7 N7            -3.5657    -0.6986    -0.0081 N.ar    
   8 C8            -4.6978    -0.0367     0.0209 C.ar    
   9 N9            -4.7583     1.2853     0.0415 N.ar    
  10 C10           -3.6602     2.0297     0.0348 C.ar    
  11 N11           -3.7382     3.4079     0.0570 N.pl3   
  12 C12           -4.9822     4.0392    -0.0337 C.ar    
  13 O13            1.1564     2.0912    -0.0458 O.3     
  14 O14            1.1946    -0.6543    -0.0889 O.3     
  15 C15           -5.2110     5.2230     0.6516 C.ar    
  16 C16           -6.4515     5.8482     0.5577 C.ar    
  17 C17           -7.4562     5.2812    -0.2240 C.ar    
  18 C18           -7.2208     4.1022    -0.9033 C.ar    
  19 C19           -5.9885     3.4836    -0.8153 C.ar    
  20 C20           -6.7034     7.1149     1.2887 C.ar    
  21 C21            1.0702     3.5174    -0.0228 C.3     
  22 C22            2.4791     4.1137    -0.0373 C.3     
  23 C23            1.1492    -2.0825    -0.1097 C.3     
  24 C24            2.5746    -2.6376    -0.1430 C.3     
  25 C25           -7.9414     7.7570     1.2069 C.ar    
  26 N26           -8.1236     8.8833     1.8745 N.ar    
  27 C27           -7.1580     9.4001     2.6084 C.ar    
  28 N28           -5.9755     8.8267     2.7127 N.ar    
  29 C29           -5.7108     7.6952     2.0823 C.ar    
  30 H30           -1.1448    -1.8001    -0.0661 H       
  31 H31           -1.2042     3.1621     0.0156 H       
  32 H32           -5.6220    -0.5954     0.0279 H       
  33 H33           -2.9298     3.9382     0.1356 H       
  34 H34           -4.4294     5.6584     1.2564 H       
  35 H35           -8.4195     5.7639    -0.2983 H       
  36 H36           -8.0009     3.6646    -1.5086 H       
  37 H37           -5.8092     2.5618    -1.3487 H       
  38 H38            0.5205     3.8623    -0.8986 H       
  39 H39            0.5503     3.8354     0.8809 H       
  40 H40            2.4133     5.2016    -0.0198 H       
  41 H41            3.0287     3.7688     0.8385 H       
  42 H42            2.9989     3.7957    -0.9411 H       
  43 H43            0.6398    -2.4429     0.7840 H       
  44 H44            0.6086    -2.4159    -0.9955 H       
  45 H45            2.5400    -3.7269    -0.1589 H       
  46 H46            3.0840    -2.2772    -1.0367 H       
  47 H47            3.1152    -2.3041     0.7428 H       
  48 H48           -8.7370     7.3398     0.6075 H       
  49 H49           -7.3412    10.3219     3.1403 H       
  50 H50           -4.7397     7.2313     2.1725 H       
@<TRIPOS>BOND
   1    1    2 ar
   2    1   13 1
   3    1    6 ar
   4    2    3 ar
   5    2   14 1
   6    3    4 ar
   7    3   30 1
   8    4    5 ar
   9    4    7 ar
  10    5    6 ar
  11    5   10 ar
  12    6   31 1
  13    7    8 ar
  14    8    9 ar
  15    8   32 1
  16    9   10 ar
  17   10   11 1
  18   11   12 1
  19   11   33 1
  20   12   15 ar
  21   12   19 ar
  22   13   21 1
  23   14   23 1
  24   15   16 ar
  25   15   34 1
  26   16   17 ar
  27   16   20 1
  28   17   18 ar
  29   17   35 1
  30   18   19 ar
  31   18   36 1
  32   19   37 1
  33   20   25 ar
  34   20   29 ar
  35   21   22 1
  36   21   38 1
  37   21   39 1
  38   22   40 1
  39   22   41 1
  40   22   42 1
  41   23   24 1
  42   23   43 1
  43   23   44 1
  44   24   45 1
  45   24   46 1
  46   24   47 1
  47   25   26 ar
  48   25   48 1
  49   26   27 ar
  50   27   28 ar
  51   27   49 1
  52   28   29 ar
  53   29   50 1

#	End of record

