#	Name: ASD01190154
#	Creating user name:	WinNT
#	Creation time:	15. 06. 2019 19:07

#	Modifying user name:	WinNT
#	Modification time:	15. 06. 2019 19:07

#	Program:	/corina/corina34_cracker 3.40 0067  02.08.2006

@<TRIPOS>MOLECULE
ASD01190154
  26   27    0    0    0
SMALL
NO_CHARGES


@<TRIPOS>ATOM
   1 C1            -0.0184     1.5028     0.0103 C.2     
   2 C2             0.0021    -0.0041     0.0020 C.3     
   3 S3             3.6799     2.8384    -0.0169 S.3     
   4 C4             2.4676     4.1130     0.0010 C.2     
   5 N5             1.2834     3.5903     0.0091 N.2     
   6 C6             1.2385     2.2514     0.0023 C.2     
   7 C7             2.4579     1.6428    -0.0121 C.2     
   8 N8             2.7389     5.4701     0.0058 N.3     
   9 C9             4.1880     5.7177    -0.0068 C.3     
  10 C10            4.4421     7.2264    -0.0613 C.3     
  11 O11            3.7952     7.8542     1.0490 O.3     
  12 C12            2.3827     7.6342     1.0920 C.3     
  13 C13            2.1078     6.1295     1.1582 C.3     
  14 F14           -1.3104    -0.4883     0.0119 F       
  15 F15            0.6569    -0.4552    -1.1490 F       
  16 F16            0.6787    -0.4675     1.1354 F       
  17 O17           -1.0777     2.0953     0.0185 O.2     
  18 H18            2.6254     0.5759    -0.0194 H       
  19 H19            4.6355     5.3057     0.8978 H       
  20 H20            4.6309     5.2421    -0.8818 H       
  21 H21            5.5142     7.4169    -0.0132 H       
  22 H22            4.0415     7.6296    -0.9914 H       
  23 H23            1.9654     8.1196     1.9742 H       
  24 H24            1.9223     8.0492     0.1954 H       
  25 H25            1.0322     5.9546     1.1335 H       
  26 H26            2.5220     5.7242     2.0814 H       
@<TRIPOS>BOND
   1    1    2 1
   2    1    6 1
   3    1   17 2
   4    2   14 1
   5    2   15 1
   6    2   16 1
   7    3    4 1
   8    3    7 1
   9    4    5 2
  10    4    8 1
  11    5    6 1
  12    6    7 2
  13    7   18 1
  14    8    9 1
  15    8   13 1
  16    9   10 1
  17    9   19 1
  18    9   20 1
  19   10   11 1
  20   10   21 1
  21   10   22 1
  22   11   12 1
  23   12   13 1
  24   12   23 1
  25   12   24 1
  26   13   25 1
  27   13   26 1

#	End of record

