#	Name: ASD04220012
#	Creating user name:	WinNT
#	Creation time:	15. 06. 2019 20:48

#	Modifying user name:	WinNT
#	Modification time:	15. 06. 2019 20:48

#	Program:	/corina/corina34_cracker 3.40 0067  02.08.2006

@<TRIPOS>MOLECULE
ASD04220012
 293  298    0    0    0
SMALL
NO_CHARGES


@<TRIPOS>ATOM
   1 O1             2.0375     2.1593     5.8379 O.2     
   2 O2            15.5545    25.8818   -18.3470 O.2     
   3 O3            20.0908    26.1539   -17.4963 O.2     
   4 O4             2.0594    -0.2382     4.4354 O.2     
   5 O5            20.5558    26.4019   -14.8356 O.2     
   6 O6            14.6219    23.5412   -17.3428 O.2     
   7 O7            -1.0965     4.3767     3.3750 O.2     
   8 O8             3.9559    -4.3058     5.5461 O.2     
   9 O9            10.1838    22.1519   -18.1927 O.2     
  10 O10            1.5421     7.6017     1.3716 O.2     
  11 O11            5.8017     2.3109     3.8353 O.3     
  12 O12            7.0273     0.5111     4.2123 O.2     
  13 O13            7.2651    -4.9463     2.3815 O.2     
  14 O14            2.2519    10.4273     4.8894 O.3     
  15 O15            1.1244     9.0284     6.1759 O.2     
  16 O16            0.8399    -7.3376     4.1458 O.3     
  17 O17           -1.3695     9.9710    -1.3276 O.2     
  18 O18            2.2448    -7.9760     2.5640 O.2     
  19 O19            7.0588    -7.6155     0.4099 O.2     
  20 O20           -3.5702     6.5541    -3.4119 O.3     
  21 O21            8.5903    21.4538   -13.7969 O.2     
  22 O22           -2.4143     5.1266    -2.1831 O.2     
  23 O23            1.3056    11.7128    -4.6722 O.2     
  24 O24            8.2466   -10.0730    -2.8843 O.3     
  25 O25            8.6262   -10.3193    -0.7212 O.2     
  26 O26           10.9650    -7.2406     8.0409 O.3     
  27 O27            4.1521    20.0646   -14.6468 O.2     
  28 O28           -2.8904    10.5856    -6.3470 O.3     
  29 O29           -0.7326    11.0377    -6.4988 O.2     
  30 O30           -0.8040    15.5504    -6.0233 O.2     
  31 O31            2.5586    19.3664   -10.2511 O.2     
  32 O32            1.1188    16.3635   -10.2649 O.2     
  33 O33           -0.9914    20.8195   -10.3168 O.2     
  34 N34            0.4528     0.6803     6.3104 N.am    
  35 N35           15.9571    24.0637   -19.5529 N.am    
  36 N36           20.7282    28.2559   -16.0418 N.am    
  37 N37           18.0188    26.7269   -18.0443 N.am    
  38 N38            0.5225     4.0697     4.8604 N.am    
  39 N39            3.0662    -1.8391     5.5953 N.am    
  40 N40           12.6798    22.9556   -18.2413 N.am    
  41 N41           22.7941    26.7094   -13.4359 N.3     
  42 N42           21.8917    26.3149   -21.5210 N.pl3   
  43 N43           -0.2164     6.5811     2.2593 N.am    
  44 N44            5.0712    -4.2339     3.6296 N.am    
  45 N45            9.9196    21.9740   -15.9971 N.am    
  46 N46            0.3622     8.7499    -0.6700 N.am    
  47 N47            7.3171    -7.0860     2.9656 N.am    
  48 N48           23.9669    26.7100   -22.6201 N.pl3   
  49 N49           21.9957    26.5243   -23.8289 N.2     
  50 N50            9.2026    -7.8349    -0.1171 N.am    
  51 N51           -0.1296    11.5812    -2.9855 N.am    
  52 N52            6.6482    20.8682   -14.6955 N.am    
  53 N53            0.0681    13.5129    -6.1237 N.am    
  54 N54            3.8879    19.8866   -12.4513 N.am    
  55 N55            0.0461    16.4740    -8.3260 N.am    
  56 N56            0.6165    18.7808   -11.1496 N.am    
  57 N57           -3.1479    20.3453   -10.1016 N.am    
  58 C58            1.3366    -0.4372     6.6732 C.3     
  59 C59           19.3788    28.2283   -16.6249 C.3     
  60 C60            0.4346    -1.6179     7.0902 C.3     
  61 C61           -0.9464     0.2593     6.5062 C.3     
  62 C62           -0.9143    -1.2858     6.3992 C.3     
  63 C63           14.5626    23.6221   -19.7007 C.3     
  64 C64           19.2561    29.4541   -17.5544 C.3     
  65 C65           14.5806    22.3132   -20.5181 C.3     
  66 C66           16.8323    23.1096   -20.2580 C.3     
  67 C67           16.0247    21.7885   -20.3020 C.3     
  68 C68           20.7348    29.7917   -17.8813 C.3     
  69 C69           21.4354    29.4484   -16.5430 C.3     
  70 C70           17.8349    25.4956   -18.8166 C.3     
  71 C71           -0.1635     2.9116     5.4387 C.3     
  72 C72            0.8553     1.8911     5.8763 C.2     
  73 C73           16.3670    25.1620   -18.8879 C.2     
  74 C74           -0.9890     3.3588     6.6468 C.3     
  75 C75           19.1896    26.9618   -17.4193 C.2     
  76 C76            2.1793    -0.8300     5.4872 C.2     
  77 C77           18.3820    25.6945   -20.2315 C.3     
  78 C78           21.2329    27.3451   -15.1862 C.2     
  79 C79           13.9581    23.3704   -18.3433 C.2     
  80 C80           -0.0921     4.1235     7.6224 C.3     
  81 C81           22.6386    27.4986   -14.6651 C.3     
  82 C82           19.8954    25.9098   -20.1674 C.3     
  83 C83           -2.1261     4.2691     6.1788 C.3     
  84 C84            3.8854    -2.2210     4.4424 C.3     
  85 C85           23.6303    27.0019   -15.7190 C.3     
  86 C86           -0.0534     4.7630     3.8583 C.2     
  87 C87            0.9375     3.1662     8.2261 C.3     
  88 C88           20.4426    26.1087   -21.5823 C.3     
  89 C89            5.1280    -1.3304     4.3823 C.3     
  90 C90            0.5988     6.0182     3.3384 C.3     
  91 C91            4.3060    -3.6615     4.5801 C.2     
  92 C92           12.0922    22.7109   -16.9218 C.3     
  93 C93            0.7184     7.0381     4.4726 C.3     
  94 C94           25.0374    27.2680   -15.2496 C.ar    
  95 C95            4.7063     0.1164     4.1178 C.3     
  96 C96            5.4800    -5.6343     3.7635 C.3     
  97 C97            1.4911     8.2625     3.9780 C.3     
  98 C98           10.6637    22.2591   -17.0840 C.2     
  99 C99           25.7088    26.3171   -14.5041 C.ar    
 100 C100          25.6587    28.4607   -15.5695 C.ar    
 101 C101           0.3539     7.3636     1.3218 C.2     
 102 C102           4.3773    -6.5422     3.2152 C.3     
 103 C103          -0.4848     7.9427     0.2117 C.3     
 104 C104           5.9303     0.9936     4.0586 C.2     
 105 C105          22.6070    26.5166   -22.6777 C.2     
 106 C106           6.7512    -5.8629     2.9870 C.2     
 107 C107          26.9995    26.5612   -14.0735 C.ar    
 108 C108          26.9494    28.7048   -15.1389 C.ar    
 109 C109          -1.1214     6.8071    -0.5921 C.3     
 110 C110           1.6088     9.2672     5.0951 C.2     
 111 C111           3.1237    -6.4020     4.0812 C.3     
 112 C112          27.6189    27.7561   -14.3889 C.ar    
 113 C113           8.5309    21.5347   -16.1548 C.3     
 114 C114           8.5528    -7.3082     2.2107 C.3     
 115 C115          -2.0702     7.3933    -1.6395 C.3     
 116 C116          -0.1802     9.7444    -1.4003 C.2     
 117 C117           2.0376    -7.2963     3.5412 C.2     
 118 C118           9.3076    -8.4981     2.8068 C.3     
 119 C119           0.6910    10.5747    -2.3073 C.3     
 120 C120           8.2166    -7.5970     0.7704 C.2     
 121 C121           7.9264    21.2830   -14.7975 C.2     
 122 C122          -2.6973     6.2748    -2.4312 C.2     
 123 C123           1.7716    11.2719    -1.4784 C.3     
 124 C124           9.7509    -8.1613     4.2072 C.ar    
 125 C125           8.8758    -8.1157    -1.5173 C.3     
 126 C126          10.0647    -7.7396    -2.4039 C.3     
 127 C127           2.7161    12.0030    -2.3973 C.ar    
 128 C128          10.2980    -6.2292    -2.3303 C.3     
 129 C129           0.2683    12.0890    -4.1688 C.2     
 130 C130           8.9248    -8.4440     5.2794 C.ar    
 131 C131          10.9854    -7.5754     4.4182 C.ar    
 132 C132           6.0606    20.6235   -13.3760 C.3     
 133 C133          -0.5758    13.1243    -4.8665 C.3     
 134 C134           8.5738    -9.5833    -1.6781 C.2     
 135 C135           2.4627    13.3163    -2.7464 C.ar    
 136 C136           3.8388    11.3621    -2.8867 C.ar    
 137 C137           9.3291    -8.1366     6.5641 C.ar    
 138 C138          11.3942    -7.2662     5.7010 C.ar    
 139 C139          11.5795    -5.8738    -3.0868 C.3     
 140 C140           9.1124    -5.4986    -2.9640 C.3     
 141 C141          10.5650    -7.5439     6.7780 C.ar    
 142 C142          -1.9590    12.5405    -5.1611 C.3     
 143 C143           4.6321    20.1717   -13.5382 C.2     
 144 C144           3.3290    13.9869    -3.5894 C.ar    
 145 C145           4.7052    12.0327    -3.7297 C.ar    
 146 C146           4.4490    13.3443    -4.0830 C.ar    
 147 C147          -1.8154    11.3330    -6.0513 C.2     
 148 C148          -0.1495    14.7380    -6.6417 C.2     
 149 C149           2.4992    19.4473   -12.6089 C.3     
 150 C150           0.4205    15.0983    -7.9895 C.3     
 151 C151           1.8948    19.1956   -11.2516 C.2     
 152 C152           0.0624    18.4306    -9.8394 C.3     
 153 C153           0.4475    17.0153    -9.4932 C.2     
 154 C154          -1.4625    18.5481    -9.8826 C.3     
 155 C155          -1.8491    19.9858   -10.1160 C.2     
 156 H156           6.6154     2.8326     3.8059 H       
 157 H157           2.3016    11.0400     5.6358 H       
 158 H158           0.1749    -7.9262     3.7629 H       
 159 H159          -3.9462     5.8035    -3.8919 H       
 160 H160           8.0615   -11.0206    -2.9379 H       
 161 H161          11.4508    -7.9515     8.4810 H       
 162 H162          -2.7487     9.8209    -6.9219 H       
 163 H163          17.2980    27.3730   -17.9828 H       
 164 H164           1.3913     4.3375     5.1987 H       
 165 H165           3.1620    -2.3125     6.4365 H       
 166 H166          12.1489    22.8190   -19.0416 H       
 167 H167          22.6185    25.7311   -13.6097 H       
 168 H168          23.7082    26.8464   -13.0314 H       
 169 H169          22.3466    26.3091   -20.6643 H       
 170 H170          -1.1667     6.3907     2.2194 H       
 171 H171           5.3512    -3.7187     2.8570 H       
 172 H172          10.3034    22.0597   -15.1104 H       
 173 H173           1.3133     8.5687    -0.7282 H       
 174 H174           6.9061    -7.8191     3.4499 H       
 175 H175          24.4218    26.7043   -21.7634 H       
 176 H176          24.4715    26.8523   -23.4362 H       
 177 H177          22.5003    26.6666   -24.6450 H       
 178 H178          10.1287    -7.8201     0.1712 H       
 179 H179          -0.9592    11.8821    -2.5829 H       
 180 H180           6.1173    20.7316   -15.4957 H       
 181 H181           0.6510    12.8885    -6.5833 H       
 182 H182           4.2718    19.9723   -11.5646 H       
 183 H183          -0.4908    16.9954    -7.7089 H       
 184 H184           0.0634    18.7142   -11.9437 H       
 185 H185          -3.3968    21.2707   -10.2518 H       
 186 H186          -3.8339    19.6785    -9.9410 H       
 187 H187           1.9772    -0.1478     7.5062 H       
 188 H188          18.6317    28.2871   -15.8334 H       
 189 H189           0.8366    -2.5604     6.7185 H       
 190 H190           0.3157    -1.6486     8.1733 H       
 191 H191          -1.3000     0.5640     7.4912 H       
 192 H192          -1.5819     0.6804     5.7271 H       
 193 H193          -0.9084    -1.6052     5.3570 H       
 194 H194          -1.7498    -1.7322     6.9383 H       
 195 H195          13.9873    24.3818   -20.2299 H       
 196 H196          18.7096    29.1970   -18.4617 H       
 197 H197          18.7765    30.2845   -17.0363 H       
 198 H198          13.8503    21.6046   -20.1275 H       
 199 H199          14.3975    22.5151   -21.5734 H       
 200 H200          17.0402    23.4610   -21.2687 H       
 201 H201          17.7615    22.9680   -19.7061 H       
 202 H202          16.1071    21.2485   -19.3588 H       
 203 H203          16.3424    21.1639   -21.1370 H       
 204 H204          21.1091    29.1644   -18.6904 H       
 205 H205          20.8502    30.8483   -18.1229 H       
 206 H206          21.3333    30.2740   -15.8387 H       
 207 H207          22.4879    29.2217   -16.7130 H       
 208 H208          18.3699    24.6792   -18.3315 H       
 209 H209          -0.8229     2.4696     4.6917 H       
 210 H210          -1.4058     2.4840     7.1459 H       
 211 H211          18.1658    24.8110   -20.8321 H       
 212 H212          17.9099    26.5663   -20.6844 H       
 213 H213           0.4234     4.9236     7.0911 H       
 214 H214          -0.7022     4.5502     8.4185 H       
 215 H215          22.8334    28.5492   -14.4495 H       
 216 H216          20.1116    26.7933   -19.5667 H       
 217 H217          20.3676    25.0381   -19.7145 H       
 218 H218          -2.7049     3.7604     5.4079 H       
 219 H219          -2.7738     4.5048     7.0232 H       
 220 H220          -1.7098     5.1906     5.7719 H       
 221 H221           3.3054    -2.0976     3.5277 H       
 222 H222          23.4940    25.9310   -15.8699 H       
 223 H223          23.4553    27.5263   -16.6584 H       
 224 H224           0.4418     2.2444     8.5305 H       
 225 H225           1.7021     2.9394     7.4832 H       
 226 H226           1.4020     3.6329     9.0947 H       
 227 H227          19.9705    26.9805   -22.0353 H       
 228 H228          20.2264    25.2252   -22.1830 H       
 229 H229           5.6609    -1.3857     5.3316 H       
 230 H230           5.7809    -1.6713     3.5787 H       
 231 H231           1.5920     5.7805     2.9574 H       
 232 H232          12.6621    21.9367   -16.4082 H       
 233 H233          12.1183    23.6300   -16.3364 H       
 234 H234          -0.2777     7.3426     4.7939 H       
 235 H235           1.2490     6.5881     5.3116 H       
 236 H236           4.1734     0.1717     3.1685 H       
 237 H237           4.0535     0.4572     4.9214 H       
 238 H238           5.6504    -5.8642     4.8153 H       
 239 H239           2.4872     7.9581     3.6567 H       
 240 H240           0.9604     8.7126     3.1390 H       
 241 H241          25.2248    25.3835   -14.2577 H       
 242 H242          25.1359    29.2017   -16.1560 H       
 243 H243           4.1450    -6.2534     2.1902 H       
 244 H244           4.7170    -7.5778     3.2328 H       
 245 H245          -1.2680     8.5700     0.6374 H       
 246 H246          27.5238    25.8186   -13.4904 H       
 247 H247          27.4350    29.6365   -15.3891 H       
 248 H248          -0.3406     6.2325    -1.0903 H       
 249 H249          -1.6798     6.1552     0.0796 H       
 250 H250           3.3560    -6.6909     5.1062 H       
 251 H251           2.7840    -5.3665     4.0636 H       
 252 H252          28.6272    27.9470   -14.0522 H       
 253 H253           7.9610    22.3090   -16.6684 H       
 254 H254           8.5048    20.6156   -16.7402 H       
 255 H255           9.1778    -6.4168     2.2663 H       
 256 H256          -2.8511     7.9679    -1.1413 H       
 257 H257          -1.5119     8.0453    -2.3112 H       
 258 H258           8.6517    -9.3683     2.8327 H       
 259 H259          10.1805    -8.7193     2.1927 H       
 260 H260           1.1618     9.9297    -3.0492 H       
 261 H261           1.3045    11.9829    -0.7969 H       
 262 H262           2.3254    10.5288    -0.9046 H       
 263 H263           8.0041    -7.5311    -1.8112 H       
 264 H264          10.9561    -8.2622    -2.0572 H       
 265 H265           9.8540    -8.0249    -3.4345 H       
 266 H266          10.3959    -5.9271    -1.2876 H       
 267 H267           7.9626    -8.9051     5.1123 H       
 268 H268          11.6306    -7.3597     3.5795 H       
 269 H269           6.6305    19.8493   -12.8623 H       
 270 H270           6.0867    21.5426   -12.7905 H       
 271 H271          -0.6800    14.0000    -4.2258 H       
 272 H272           1.5877    13.8184    -2.3608 H       
 273 H273           4.0393    10.3375    -2.6102 H       
 274 H274           8.6834    -8.3573     7.4012 H       
 275 H275          12.3587    -6.8089     5.8653 H       
 276 H276          11.4499    -6.0963    -4.1459 H       
 277 H277          11.7925    -4.8121    -2.9620 H       
 278 H278          12.4093    -6.4597    -2.6913 H       
 279 H279           8.1995    -5.7518    -2.4251 H       
 280 H280           9.2787    -4.4226    -2.9116 H       
 281 H281           9.0146    -5.8008    -4.0067 H       
 282 H282          -2.4365    12.2477    -4.2260 H       
 283 H283          -2.5708    13.2906    -5.6622 H       
 284 H284           3.1307    15.0128    -3.8627 H       
 285 H285           5.5826    11.5320    -4.1118 H       
 286 H286           5.1257    13.8681    -4.7419 H       
 287 H287           1.9293    20.2216   -13.1226 H       
 288 H288           2.4731    18.5283   -13.1944 H       
 289 H289           0.0250    14.4190    -8.7446 H       
 290 H290           1.5068    15.0145    -7.9587 H       
 291 H291           0.4579    19.1098    -9.0843 H       
 292 H292          -1.8516    17.9311   -10.6926 H       
 293 H293          -1.8800    18.2088    -8.9347 H       
@<TRIPOS>BOND
   1    1   72 2
   2    2   73 2
   3    3   75 2
   4    4   76 2
   5    5   78 2
   6    6   79 2
   7    7   86 2
   8    8   91 2
   9    9   98 2
  10   10  101 2
  11   11  104 1
  12   11  156 1
  13   12  104 2
  14   13  106 2
  15   14  110 1
  16   14  157 1
  17   15  110 2
  18   16  117 1
  19   16  158 1
  20   17  116 2
  21   18  117 2
  22   19  120 2
  23   20  122 1
  24   20  159 1
  25   21  121 2
  26   22  122 2
  27   23  129 2
  28   24  134 1
  29   24  160 1
  30   25  134 2
  31   26  141 1
  32   26  161 1
  33   27  143 2
  34   28  147 1
  35   28  162 1
  36   29  147 2
  37   30  148 2
  38   31  151 2
  39   32  153 2
  40   33  155 2
  41   34   58 1
  42   34   61 1
  43   34   72 am
  44   35   63 1
  45   35   66 1
  46   35   73 am
  47   36   59 1
  48   36   69 1
  49   36   78 am
  50   37   75 am
  51   37   70 1
  52   37  163 1
  53   38   86 am
  54   38   71 1
  55   38  164 1
  56   39   76 am
  57   39   84 1
  58   39  165 1
  59   40   79 am
  60   40   92 1
  61   40  166 1
  62   41   81 1
  63   41  167 1
  64   41  168 1
  65   42   88 1
  66   42  105 1
  67   42  169 1
  68   43  101 am
  69   43   90 1
  70   43  170 1
  71   44   91 am
  72   44   96 1
  73   44  171 1
  74   45   98 am
  75   45  113 1
  76   45  172 1
  77   46  116 am
  78   46  103 1
  79   46  173 1
  80   47  106 am
  81   47  114 1
  82   47  174 1
  83   48  105 1
  84   48  175 1
  85   48  176 1
  86   49  105 2
  87   49  177 1
  88   50  120 am
  89   50  125 1
  90   50  178 1
  91   51  129 am
  92   51  119 1
  93   51  179 1
  94   52  121 am
  95   52  132 1
  96   52  180 1
  97   53  148 am
  98   53  133 1
  99   53  181 1
 100   54  143 am
 101   54  149 1
 102   54  182 1
 103   55  150 1
 104   55  153 am
 105   55  183 1
 106   56  151 am
 107   56  152 1
 108   56  184 1
 109   57  155 am
 110   57  185 1
 111   57  186 1
 112   58   60 1
 113   58   76 1
 114   58  187 1
 115   59   64 1
 116   59   75 1
 117   59  188 1
 118   60   62 1
 119   60  189 1
 120   60  190 1
 121   61   62 1
 122   61  191 1
 123   61  192 1
 124   62  193 1
 125   62  194 1
 126   63   65 1
 127   63   79 1
 128   63  195 1
 129   64   68 1
 130   64  196 1
 131   64  197 1
 132   65   67 1
 133   65  198 1
 134   65  199 1
 135   66   67 1
 136   66  200 1
 137   66  201 1
 138   67  202 1
 139   67  203 1
 140   68   69 1
 141   68  204 1
 142   68  205 1
 143   69  206 1
 144   69  207 1
 145   70   73 1
 146   70   77 1
 147   70  208 1
 148   71   72 1
 149   71   74 1
 150   71  209 1
 151   74   80 1
 152   74   83 1
 153   74  210 1
 154   77   82 1
 155   77  211 1
 156   77  212 1
 157   78   81 1
 158   80   87 1
 159   80  213 1
 160   80  214 1
 161   81   85 1
 162   81  215 1
 163   82   88 1
 164   82  216 1
 165   82  217 1
 166   83  218 1
 167   83  219 1
 168   83  220 1
 169   84   89 1
 170   84   91 1
 171   84  221 1
 172   85   94 1
 173   85  222 1
 174   85  223 1
 175   86   90 1
 176   87  224 1
 177   87  225 1
 178   87  226 1
 179   88  227 1
 180   88  228 1
 181   89   95 1
 182   89  229 1
 183   89  230 1
 184   90   93 1
 185   90  231 1
 186   92   98 1
 187   92  232 1
 188   92  233 1
 189   93   97 1
 190   93  234 1
 191   93  235 1
 192   94   99 ar
 193   94  100 ar
 194   95  104 1
 195   95  236 1
 196   95  237 1
 197   96  102 1
 198   96  106 1
 199   96  238 1
 200   97  110 1
 201   97  239 1
 202   97  240 1
 203   99  107 ar
 204   99  241 1
 205  100  108 ar
 206  100  242 1
 207  101  103 1
 208  102  111 1
 209  102  243 1
 210  102  244 1
 211  103  109 1
 212  103  245 1
 213  107  112 ar
 214  107  246 1
 215  108  112 ar
 216  108  247 1
 217  109  115 1
 218  109  248 1
 219  109  249 1
 220  111  117 1
 221  111  250 1
 222  111  251 1
 223  112  252 1
 224  113  121 1
 225  113  253 1
 226  113  254 1
 227  114  118 1
 228  114  120 1
 229  114  255 1
 230  115  122 1
 231  115  256 1
 232  115  257 1
 233  116  119 1
 234  118  124 1
 235  118  258 1
 236  118  259 1
 237  119  123 1
 238  119  260 1
 239  123  127 1
 240  123  261 1
 241  123  262 1
 242  124  130 ar
 243  124  131 ar
 244  125  126 1
 245  125  134 1
 246  125  263 1
 247  126  128 1
 248  126  264 1
 249  126  265 1
 250  127  135 ar
 251  127  136 ar
 252  128  139 1
 253  128  140 1
 254  128  266 1
 255  129  133 1
 256  130  137 ar
 257  130  267 1
 258  131  138 ar
 259  131  268 1
 260  132  143 1
 261  132  269 1
 262  132  270 1
 263  133  142 1
 264  133  271 1
 265  135  144 ar
 266  135  272 1
 267  136  145 ar
 268  136  273 1
 269  137  141 ar
 270  137  274 1
 271  138  141 ar
 272  138  275 1
 273  139  276 1
 274  139  277 1
 275  139  278 1
 276  140  279 1
 277  140  280 1
 278  140  281 1
 279  142  147 1
 280  142  282 1
 281  142  283 1
 282  144  146 ar
 283  144  284 1
 284  145  146 ar
 285  145  285 1
 286  146  286 1
 287  148  150 1
 288  149  151 1
 289  149  287 1
 290  149  288 1
 291  150  289 1
 292  150  290 1
 293  152  153 1
 294  152  154 1
 295  152  291 1
 296  154  155 1
 297  154  292 1
 298  154  293 1

#	End of record

