#	Name: ASD03731487
#	Creating user name:	WinNT
#	Creation time:	15. 06. 2019 20:45

#	Modifying user name:	WinNT
#	Modification time:	15. 06. 2019 20:45

#	Program:	/corina/corina34_cracker 3.40 0067  02.08.2006

@<TRIPOS>MOLECULE
ASD03731487
  58   64    0    0    0
SMALL
NO_CHARGES


@<TRIPOS>ATOM
   1 O1            -0.0162     1.3402     0.0094 O.3     
   2 C2             0.0021    -0.0041     0.0020 C.2     
   3 C3             1.2653    -0.4496    -0.0124 C.2     
   4 C4             2.1197     0.7447    -0.0142 C.ar    
   5 C5             1.2355     1.8393     0.0001 C.ar    
   6 C6             1.7459     3.1334     0.0018 C.ar    
   7 C7             3.0946     3.3411    -0.0108 C.ar    
   8 C8             3.9843     2.2595    -0.0256 C.ar    
   9 C9             3.4940     0.9558    -0.0265 C.ar    
  10 C10            5.4413     2.5011    -0.0395 C.2     
  11 O11            6.2131     1.5619    -0.0523 O.2     
  12 N12            5.9152     3.7628    -0.0380 N.am    
  13 C13            7.3604     4.0024    -0.0519 C.3     
  14 C14            7.6276     5.5089    -0.0470 C.3     
  15 C15            9.1369     5.7592    -0.0614 C.3     
  16 O16            5.3631    11.4665     2.1466 O.3     
  17 C17            5.2069    12.8757     2.3976 C.3     
  18 O18            6.4932    13.2777     2.9045 O.3     
  19 C19            7.3895    12.3997     2.3653 C.ar    
  20 C20            6.6940    11.2858     1.9004 C.ar    
  21 C21            8.7648    12.4623     2.2304 C.ar    
  22 C22            9.4631    11.4170     1.6335 C.ar    
  23 C23            8.7583    10.3059     1.1805 C.ar    
  24 C24            7.3863    10.2432     1.3079 C.ar    
  25 O25           10.7988    11.2876     1.3901 O.3     
  26 C26            9.7777     9.3508     0.6197 C.3     
  27 C27           11.1068     9.9000     1.1557 C.3     
  28 N28            9.3928     7.2017    -0.0568 N.am    
  29 C29            9.5363     7.9368     1.0639 C.2     
  30 C30            9.7544     9.3062    -0.8794 C.ar    
  31 C31            9.9115    10.2580    -1.8620 C.ar    
  32 C32            9.8355     9.8966    -3.1953 C.ar    
  33 C33            9.6009     8.5775    -3.5386 C.ar    
  34 C34            9.4419     7.6207    -2.5580 C.ar    
  35 C35            9.5172     7.9754    -1.2133 C.ar    
  36 O36            9.4816     7.5350     2.2070 O.2     
  37 H37           -0.8752    -0.6339     0.0073 H       
  38 H38            1.5899    -1.4796    -0.0205 H       
  39 H39            1.0719     3.9773     0.0128 H       
  40 H40            3.4799     4.3500    -0.0097 H       
  41 H41            4.1745     0.1173    -0.0373 H       
  42 H42            5.2994     4.5122    -0.0278 H       
  43 H43            7.8121     3.5505     0.8312 H       
  44 H44            7.7936     3.5595    -0.9487 H       
  45 H45            7.1759     5.9609    -0.9300 H       
  46 H46            7.1944     5.9519     0.8498 H       
  47 H47            9.5886     5.3072     0.8216 H       
  48 H48            9.5701     5.3163    -0.9582 H       
  49 H49            4.9766    13.4060     1.4737 H       
  50 H50            4.4306    13.0481     3.1431 H       
  51 H51            9.3002    13.3283     2.5909 H       
  52 H52            6.8507     9.3784     0.9450 H       
  53 H53           11.8960     9.7991     0.4105 H       
  54 H54           11.3846     9.4027     2.0850 H       
  55 H55           10.0944    11.2875    -1.5917 H       
  56 H56            9.9595    10.6427    -3.9663 H       
  57 H57            9.5414     8.2954    -4.5794 H       
  58 H58            9.2584     6.5927    -2.8339 H       
@<TRIPOS>BOND
   1    1    2 1
   2    1    5 1
   3    2    3 2
   4    2   37 1
   5    3    4 1
   6    3   38 1
   7    4    5 ar
   8    4    9 ar
   9    5    6 ar
  10    6    7 ar
  11    6   39 1
  12    7    8 ar
  13    7   40 1
  14    8    9 ar
  15    8   10 1
  16    9   41 1
  17   10   11 2
  18   10   12 am
  19   12   13 1
  20   12   42 1
  21   13   14 1
  22   13   43 1
  23   13   44 1
  24   14   15 1
  25   14   45 1
  26   14   46 1
  27   15   28 1
  28   15   47 1
  29   15   48 1
  30   16   17 1
  31   16   20 1
  32   17   18 1
  33   17   49 1
  34   17   50 1
  35   18   19 1
  36   19   20 ar
  37   19   21 ar
  38   20   24 ar
  39   21   22 ar
  40   21   51 1
  41   22   23 ar
  42   22   25 1
  43   23   24 ar
  44   23   26 1
  45   24   52 1
  46   25   27 1
  47   26   27 1
  48   26   29 1
  49   26   30 1
  50   27   53 1
  51   27   54 1
  52   28   29 am
  53   28   35 1
  54   29   36 2
  55   30   31 ar
  56   30   35 ar
  57   31   32 ar
  58   31   55 1
  59   32   33 ar
  60   32   56 1
  61   33   34 ar
  62   33   57 1
  63   34   35 ar
  64   34   58 1

#	End of record

