#	Name: ASD01900520
#	Creating user name:	WinNT
#	Creation time:	15. 06. 2019 19:52

#	Modifying user name:	WinNT
#	Modification time:	15. 06. 2019 19:52

#	Program:	/corina/corina34_cracker 3.40 0067  02.08.2006

@<TRIPOS>MOLECULE
ASD01900520
  25   27    0    0    0
SMALL
NO_CHARGES


@<TRIPOS>ATOM
   1 C1            -0.0262     1.3896     0.1267 C.ar    
   2 C2             0.0065     0.0003    -0.0636 C.ar    
   3 C3             1.2218    -0.6691     0.0522 C.ar    
   4 C4             2.3511     0.0702     0.3519 C.ar    
   5 C5             2.2440     1.4425     0.5270 C.ar    
   6 N6             1.0868     2.0557     0.4128 N.ar    
   7 O7            -1.2507    -0.3999    -0.3372 O.3     
   8 N8            -2.1132     0.7200    -0.3281 N.2     
   9 C9            -1.4307     1.7960    -0.0524 C.2     
  10 N10           -1.9329     3.0870     0.0450 N.pl3   
  11 C11           -3.3112     3.3096    -0.0404 C.ar    
  12 C12           -4.2012     2.3265     0.3728 C.ar    
  13 C13           -5.5632     2.5492     0.2878 C.ar    
  14 C14           -6.0395     3.7530    -0.2103 C.ar    
  15 C15           -5.1531     4.7324    -0.6225 C.ar    
  16 C16           -3.7914     4.5158    -0.5332 C.ar    
  17 F17           -7.3705     3.9694    -0.2934 F       
  18 F18           -6.4301     1.5940     0.6893 F       
  19 H19            1.2809    -1.7383    -0.0880 H       
  20 H20            3.3099    -0.4171     0.4494 H       
  21 H21            3.1277     2.0175     0.7610 H       
  22 H22           -1.3280     3.8345     0.1724 H       
  23 H23           -3.8297     1.3892     0.7599 H       
  24 H24           -5.5260     5.6687    -1.0107 H       
  25 H25           -3.1005     5.2826    -0.8511 H       
@<TRIPOS>BOND
   1    1    2 ar
   2    1    6 ar
   3    1    9 1
   4    2    3 ar
   5    2    7 1
   6    3    4 ar
   7    3   19 1
   8    4    5 ar
   9    4   20 1
  10    5    6 ar
  11    5   21 1
  12    7    8 1
  13    8    9 2
  14    9   10 1
  15   10   11 1
  16   10   22 1
  17   11   12 ar
  18   11   16 ar
  19   12   13 ar
  20   12   23 1
  21   13   14 ar
  22   13   18 1
  23   14   15 ar
  24   14   17 1
  25   15   16 ar
  26   15   24 1
  27   16   25 1

#	End of record

