#	Name: ASD01840537
#	Creating user name:	WinNT
#	Creation time:	15. 06. 2019 19:37

#	Modifying user name:	WinNT
#	Modification time:	15. 06. 2019 19:37

#	Program:	/corina/corina34_cracker 3.40 0067  02.08.2006

@<TRIPOS>MOLECULE
ASD01840537
  49   53    0    0    0
SMALL
NO_CHARGES


@<TRIPOS>ATOM
   1 C1            -1.3441     1.1529     0.2213 C.3     
   2 C2            -0.6371    -0.1727     0.1037 C.ar    
   3 C3            -0.7205    -0.8991    -1.0537 C.ar    
   4 C4            -0.0469    -2.1273    -1.1209 C.ar    
   5 C5             0.0739    -3.1386    -2.1826 C.2     
   6 O6            -0.4443    -3.0595    -3.2797 O.2     
   7 N7             0.8390    -4.1626    -1.7664 N.am    
   8 C8             1.2780    -3.8945    -0.3923 C.3     
   9 C9             0.6803    -2.5618    -0.0104 C.ar    
  10 N10            0.7359    -1.8345     1.0826 N.ar    
  11 C11            0.1119    -0.6667     1.1706 C.ar    
  12 N12            0.2021     0.0692     2.3400 N.3     
  13 C13            1.3687     0.9576     2.3132 C.3     
  14 C14            1.4153     1.7524     3.6233 C.3     
  15 C15            1.8684     0.8116     4.7423 C.3     
  16 O16            1.7677     1.4850     5.9987 O.3     
  17 C17            2.9516     2.1905     6.3766 C.3     
  18 C18            2.7307     2.8692     7.7299 C.3     
  19 C19            1.3119     3.3805     7.9880 C.3     
  20 C20            3.5168     2.3307     8.9270 C.3     
  21 C21            3.8906     3.6804     8.3110 C.3     
  22 C22            0.9869    -0.4310     4.7618 C.3     
  23 C23           -0.5288    -0.2753     4.7555 C.3     
  24 C24            0.2016    -0.8078     3.5136 C.3     
  25 H25           -0.6517     1.9573    -0.0270 H       
  26 H26           -2.1895     1.1761    -0.4665 H       
  27 H27           -1.7026     1.2842     1.2422 H       
  28 H28           -1.2918    -0.5351    -1.8948 H       
  29 H29            1.0635    -4.9489    -2.2882 H       
  30 H30            0.9130    -4.6741     0.2764 H       
  31 H31            2.3660    -3.8430    -0.3499 H       
  32 H32            2.2775     0.3641     2.2135 H       
  33 H33            1.2849     1.6451     1.4715 H       
  34 H34            2.1221     2.5766     3.5277 H       
  35 H35            0.4235     2.1432     3.8511 H       
  36 H36            2.9038     0.5173     4.5711 H       
  37 H37            3.7832     1.4900     6.4529 H       
  38 H38            3.1803     2.9455     5.6245 H       
  39 H39            0.5928     2.7080     7.5203 H       
  40 H40            1.1291     3.4181     9.0619 H       
  41 H41            1.2033     4.3794     7.5657 H       
  42 H42            3.0231     2.3404     9.8987 H       
  43 H43            4.1912     1.4928     8.7504 H       
  44 H44            4.8109     3.7305     7.7292 H       
  45 H45            3.6428     4.5780     8.8775 H       
  46 H46            1.3758    -1.2587     5.3549 H       
  47 H47           -1.1109    -0.9866     5.3414 H       
  48 H48           -0.9311     0.7367     4.7082 H       
  49 H49            0.0796    -1.8702     3.3027 H       
@<TRIPOS>BOND
   1    1    2 1
   2    1   25 1
   3    1   26 1
   4    1   27 1
   5    2   11 ar
   6    2    3 ar
   7    3    4 ar
   8    3   28 1
   9    4    9 ar
  10    4    5 1
  11    5    6 2
  12    5    7 am
  13    7    8 1
  14    7   29 1
  15    8    9 1
  16    8   30 1
  17    8   31 1
  18    9   10 ar
  19   10   11 ar
  20   11   12 1
  21   12   24 1
  22   12   13 1
  23   13   14 1
  24   13   32 1
  25   13   33 1
  26   14   15 1
  27   14   34 1
  28   14   35 1
  29   15   16 1
  30   15   22 1
  31   15   36 1
  32   16   17 1
  33   17   18 1
  34   17   37 1
  35   17   38 1
  36   18   21 1
  37   18   19 1
  38   18   20 1
  39   19   39 1
  40   19   40 1
  41   19   41 1
  42   20   21 1
  43   20   42 1
  44   20   43 1
  45   21   44 1
  46   21   45 1
  47   22   24 1
  48   22   23 1
  49   22   46 1
  50   23   24 1
  51   23   47 1
  52   23   48 1
  53   24   49 1

#	End of record

