#	Name: ASD00170478
#	Creating user name:	WinNT
#	Creation time:	15. 06. 2019 18:32

#	Modifying user name:	WinNT
#	Modification time:	15. 06. 2019 18:32

#	Program:	/corina/corina34_cracker 3.40 0067  02.08.2006

@<TRIPOS>MOLECULE
ASD00170478
  46   49    0    0    0
SMALL
NO_CHARGES


@<TRIPOS>ATOM
   1 C1             0.0514     1.2234    -0.0517 C.ar    
   2 C2             0.0269    -0.1761    -0.0207 C.ar    
   3 C3            -1.1874    -0.8460     0.0545 C.ar    
   4 C4            -2.3652    -0.1326     0.0984 C.ar    
   5 C5            -2.3531     1.2586     0.0683 C.ar    
   6 C6            -1.1398     1.9398    -0.0013 C.ar    
   7 C7            -3.8110    -0.5524     0.1807 C.3     
   8 C8            -4.6089     0.7332     0.1940 C.2     
   9 C9            -3.7572     1.7735     0.1286 C.2     
  10 S10           -6.2625     1.3406     0.2645 S.3     
  11 C11           -5.6601     2.9920     0.1987 C.2     
  12 N12           -4.3716     2.9771     0.1343 N.2     
  13 N13           -6.4473     4.1320     0.2137 N.pl3   
  14 N14            1.2229    -0.8982    -0.0659 N.am    
  15 C15            1.3347    -2.0597     0.6085 C.2     
  16 O16            0.4364    -2.4276     1.3358 O.2     
  17 C17            2.5758    -2.9014     0.4591 C.3     
  18 C18            1.3465     1.9414    -0.1320 C.ar    
  19 C19            1.5339     2.9384    -1.0885 C.ar    
  20 C20            2.7386     3.6046    -1.1614 C.ar    
  21 C21            3.7664     3.2826    -0.2824 C.ar    
  22 C22            3.5819     2.2886     0.6717 C.ar    
  23 C23            2.3765     1.6244     0.7526 C.ar    
  24 N24            4.9857     3.9582    -0.3584 N.pl3   
  25 C25            5.2253     4.9181    -1.4388 C.3     
  26 C26            6.0257     3.7072     0.6424 C.3     
  27 H27           -1.2084    -1.9255     0.0781 H       
  28 H28           -1.1246     3.0195    -0.0249 H       
  29 H29           -4.0789    -1.1530    -0.6885 H       
  30 H30           -3.9882    -1.1151     1.0973 H       
  31 H31           -7.4129     4.0540     0.2638 H       
  32 H32           -6.0329     5.0081     0.1740 H       
  33 H33            1.9724    -0.5633    -0.5826 H       
  34 H34            3.3081    -2.6055     1.2103 H       
  35 H35            2.3205    -3.9524     0.5946 H       
  36 H36            2.9964    -2.7550    -0.5358 H       
  37 H37            0.7359     3.1884    -1.7720 H       
  38 H38            2.8842     4.3769    -1.9021 H       
  39 H39            4.3818     2.0398     1.3533 H       
  40 H40            2.2335     0.8525     1.4942 H       
  41 H41            4.9034     5.9100    -1.1216 H       
  42 H42            6.2888     4.9398    -1.6763 H       
  43 H43            4.6617     4.6186    -2.3225 H       
  44 H44            5.7043     2.9054     1.3073 H       
  45 H45            6.9491     3.4159     0.1417 H       
  46 H46            6.1976     4.6136     1.2230 H       
@<TRIPOS>BOND
   1    1    2 ar
   2    1   18 1
   3    1    6 ar
   4    2    3 ar
   5    2   14 1
   6    3    4 ar
   7    3   27 1
   8    4    5 ar
   9    4    7 1
  10    5    6 ar
  11    5    9 1
  12    6   28 1
  13    7    8 1
  14    7   29 1
  15    7   30 1
  16    8    9 2
  17    8   10 1
  18    9   12 1
  19   10   11 1
  20   11   12 2
  21   11   13 1
  22   13   31 1
  23   13   32 1
  24   14   15 am
  25   14   33 1
  26   15   16 2
  27   15   17 1
  28   17   34 1
  29   17   35 1
  30   17   36 1
  31   18   19 ar
  32   18   23 ar
  33   19   20 ar
  34   19   37 1
  35   20   21 ar
  36   20   38 1
  37   21   22 ar
  38   21   24 1
  39   22   23 ar
  40   22   39 1
  41   23   40 1
  42   24   25 1
  43   24   26 1
  44   25   41 1
  45   25   42 1
  46   25   43 1
  47   26   44 1
  48   26   45 1
  49   26   46 1

#	End of record

