#	Name: ASD01903039
#	Creating user name:	WinNT
#	Creation time:	15. 06. 2019 19:54

#	Modifying user name:	WinNT
#	Modification time:	15. 06. 2019 19:54

#	Program:	/corina/corina34_cracker 3.40 0067  02.08.2006

@<TRIPOS>MOLECULE
ASD01903039
  37   39    0    0    0
SMALL
NO_CHARGES


@<TRIPOS>ATOM
   1 C1             0.1114     1.3525    -0.5662 C.ar    
   2 C2             0.0915     0.0004    -0.2843 C.ar    
   3 C3             1.2788    -0.7193    -0.2505 C.ar    
   4 C4             2.4846    -0.0809    -0.4997 C.ar    
   5 C5             2.5055     1.2711    -0.7812 C.ar    
   6 C6             1.3191     1.9917    -0.8157 C.ar    
   7 N7             1.3402     3.3621    -1.1010 N.am    
   8 C8             2.2431     3.8553    -1.9716 C.2     
   9 O9             3.0898     3.1251    -2.4480 O.2     
  10 C10            2.2034     5.2875    -2.3479 C.ar    
  11 O11            1.2592    -2.0502     0.0274 O.3     
  12 N12            1.2764     6.0801    -1.8243 N.ar    
  13 C13            1.2068     7.3571    -2.1316 C.ar    
  14 C14            2.1057     7.9253    -3.0197 C.ar    
  15 C15            3.0904     7.1335    -3.5901 C.ar    
  16 C16            3.1432     5.7926    -3.2440 C.ar    
  17 Cl17          -1.4174    -0.7991     0.0282 Cl      
  18 C18            2.4488    -2.7006     0.1182 C.ar    
  19 C19            3.1109    -2.7660     1.3326 C.ar    
  20 C20            4.3325    -3.4350     1.4211 C.ar    
  21 C21            4.8786    -4.0339     0.2841 C.ar    
  22 C22            4.2101    -3.9624    -0.9211 C.ar    
  23 C23            2.9974    -3.3042    -1.0060 C.ar    
  24 C24            5.0235    -3.5067     2.6733 C.1     
  25 N25            5.5717    -3.5636     3.6667 N.1     
  26 H26           -0.8121     1.9116    -0.5969 H       
  27 H27            3.4075    -0.6411    -0.4733 H       
  28 H28            3.4448     1.7679    -0.9745 H       
  29 H29            0.7050     3.9566    -0.6721 H       
  30 H30            0.4383     7.9710    -1.6857 H       
  31 H31            2.0397     8.9749    -3.2656 H       
  32 H32            3.8027     7.5529    -4.2851 H       
  33 H33            3.8970     5.1465    -3.6692 H       
  34 H34            2.6834    -2.3005     2.2084 H       
  35 H35            5.8239    -4.5524     0.3477 H       
  36 H36            4.6336    -4.4260    -1.7998 H       
  37 H37            2.4788    -3.2520    -1.9518 H       
@<TRIPOS>BOND
   1    1    2 ar
   2    1    6 ar
   3    1   26 1
   4    2    3 ar
   5    2   17 1
   6    3    4 ar
   7    3   11 1
   8    4    5 ar
   9    4   27 1
  10    5    6 ar
  11    5   28 1
  12    6    7 1
  13    7    8 am
  14    7   29 1
  15    8    9 2
  16    8   10 1
  17   10   12 ar
  18   10   16 ar
  19   11   18 1
  20   12   13 ar
  21   13   14 ar
  22   13   30 1
  23   14   15 ar
  24   14   31 1
  25   15   16 ar
  26   15   32 1
  27   16   33 1
  28   18   19 ar
  29   18   23 ar
  30   19   20 ar
  31   19   34 1
  32   20   21 ar
  33   20   24 1
  34   21   22 ar
  35   21   35 1
  36   22   23 ar
  37   22   36 1
  38   23   37 1
  39   24   25 3

#	End of record

