#	Name: ASD03092554
#	Creating user name:	WinNT
#	Creation time:	15. 06. 2019 20:32

#	Modifying user name:	WinNT
#	Modification time:	15. 06. 2019 20:32

#	Program:	/corina/corina34_cracker 3.40 0067  02.08.2006

@<TRIPOS>MOLECULE
ASD03092554
  41   44    0    0    0
SMALL
NO_CHARGES


@<TRIPOS>ATOM
   1 N1            -0.0169     1.3951     0.0097 N.pl3   
   2 N2             0.0021    -0.0041     0.0020 N.2     
   3 C3             1.2418    -0.4097    -0.0120 C.2     
   4 C4             2.0751     0.7313    -0.0138 C.2     
   5 C5             1.2504     1.8383    -0.0000 C.2     
   6 C6             3.5493     0.7384    -0.0274 C.2     
   7 O7             4.1523     1.7944    -0.0271 O.2     
   8 N8             4.2287    -0.4256    -0.0402 N.am    
   9 O9            -0.7702     3.8077     1.2907 O.3     
  10 C10           -1.6628     2.6929     1.4144 C.3     
  11 C11           -1.2173     2.2349     0.0202 C.3     
  12 C12           -0.9460     3.7368    -0.1302 C.3     
  13 C13            5.6936    -0.4186    -0.0537 C.3     
  14 N14            7.5939    -5.7113    -0.3742 N.pl3   
  15 C15            7.6381    -5.8624    -1.7334 C.2     
  16 C16            7.2273    -4.7338    -2.3329 C.2     
  17 C17            6.8926    -3.7821    -1.2708 C.ar    
  18 C18            6.4206    -2.4681    -1.2583 C.ar    
  19 C19            6.2026    -1.8369    -0.0664 C.ar    
  20 C20            6.4468    -2.4916     1.1333 C.ar    
  21 C21            6.9131    -3.7877     1.1441 C.ar    
  22 C22            7.1421    -4.4497    -0.0580 C.ar    
  23 C23            8.0827    -7.1108    -2.4510 C.3     
  24 H24            1.5732    -1.4376    -0.0201 H       
  25 H25            1.5666     2.8709     0.0025 H       
  26 H26            3.7477    -1.2679    -0.0405 H       
  27 H27           -1.3824     2.0000     2.2077 H       
  28 H28           -2.7128     2.9822     1.4599 H       
  29 H29           -2.0209     1.8535    -0.6098 H       
  30 H30           -1.8088     4.2987    -0.4881 H       
  31 H31           -0.0376     3.9586    -0.6903 H       
  32 H32            6.0462     0.1020    -0.9441 H       
  33 H33            6.0627     0.0920     0.8357 H       
  34 H34            7.8402    -6.3928     0.2706 H       
  35 H35            7.1569    -4.5604    -3.3965 H       
  36 H36            6.2292    -1.9522    -2.1877 H       
  37 H37            6.2697    -1.9794     2.0675 H       
  38 H38            7.1004    -4.2883     2.0826 H       
  39 H39            7.2230    -7.7601    -2.6171 H       
  40 H40            8.5247    -6.8407    -3.4100 H       
  41 H41            8.8218    -7.6346    -1.8449 H       
@<TRIPOS>BOND
   1    1    2 1
   2    1    5 1
   3    1   11 1
   4    2    3 2
   5    3    4 1
   6    3   24 1
   7    4    5 2
   8    4    6 1
   9    5   25 1
  10    6    7 2
  11    6    8 am
  12    8   13 1
  13    8   26 1
  14    9   10 1
  15    9   12 1
  16   10   11 1
  17   10   27 1
  18   10   28 1
  19   11   12 1
  20   11   29 1
  21   12   30 1
  22   12   31 1
  23   13   19 1
  24   13   32 1
  25   13   33 1
  26   14   15 1
  27   14   22 1
  28   14   34 1
  29   15   16 2
  30   15   23 1
  31   16   17 1
  32   16   35 1
  33   17   18 ar
  34   17   22 ar
  35   18   19 ar
  36   18   36 1
  37   19   20 ar
  38   20   21 ar
  39   20   37 1
  40   21   22 ar
  41   21   38 1
  42   23   39 1
  43   23   40 1
  44   23   41 1

#	End of record

