#	Name: ASD01811759
#	Creating user name:	WinNT
#	Creation time:	15. 06. 2019 19:27

#	Modifying user name:	WinNT
#	Modification time:	15. 06. 2019 19:27

#	Program:	/corina/corina34_cracker 3.40 0067  02.08.2006

@<TRIPOS>MOLECULE
ASD01811759
  55   59    0    0    0
SMALL
NO_CHARGES


@<TRIPOS>ATOM
   1 C1            -0.0169     1.3935     0.0097 C.ar    
   2 C2             0.0021    -0.0041     0.0020 C.ar    
   3 C3            -1.1998    -0.7161     0.0102 C.ar    
   4 C4            -2.4017    -0.0447     0.0257 C.ar    
   5 C5            -2.4221     1.3523     0.0334 C.ar    
   6 C6            -1.2174     2.0607     0.0305 C.ar    
   7 C7             1.2768     2.1665     0.0015 C.3     
   8 C8             1.2509    -0.7046    -0.0146 C.1     
   9 N9             2.2417    -1.2603    -0.0279 N.1     
  10 C10           -1.1806    -2.2230     0.0014 C.3     
  11 C11           -1.0361    -2.7318     1.4125 C.ar    
  12 C12           -2.1625    -2.9805     2.1751 C.ar    
  13 C13           -2.0332    -3.4464     3.4689 C.ar    
  14 C14           -0.7707    -3.6654     4.0034 C.ar    
  15 C15            0.3583    -3.4152     3.2352 C.ar    
  16 C16            0.2225    -2.9543     1.9402 C.ar    
  17 N17           -0.6362    -4.1378     5.3164 N.pl3   
  18 C18            0.5281    -4.3920     5.9554 C.2     
  19 C19            0.2276    -4.8303     7.1999 C.2     
  20 C20           -1.1658    -4.8448     7.3267 C.2     
  21 N21           -1.6841    -4.4244     6.2009 N.2     
  22 C22           -3.5312     2.3272     0.0497 C.2     
  23 N23           -3.0490     3.5817     0.0516 N.am    
  24 C24           -1.5830     3.5243     0.0405 C.3     
  25 O25           -4.7114     2.0366     0.0599 O.2     
  26 C26           -3.8547     4.8052     0.0657 C.3     
  27 C27           -4.7358     4.8416     1.3267 C.3     
  28 C28           -6.1995     4.8776     0.8407 C.3     
  29 C29           -6.1436     4.2609    -0.5790 C.3     
  30 C30           -4.8137     4.8204    -1.1425 C.3     
  31 O31           -4.4455     6.0122     2.0931 O.3     
  32 H32           -3.3291    -0.5982     0.0316 H       
  33 H33            1.5788     2.3584    -1.0281 H       
  34 H34            1.1371     3.1141     0.5218 H       
  35 H35            2.0500     1.5861     0.5049 H       
  36 H36           -2.1117    -2.5957    -0.4256 H       
  37 H37           -0.3403    -2.5722    -0.5986 H       
  38 H38           -3.1443    -2.8100     1.7587 H       
  39 H39           -2.9133    -3.6398     4.0642 H       
  40 H40            1.3417    -3.5842     3.6484 H       
  41 H41            1.1004    -2.7594     1.3421 H       
  42 H42            1.5197    -4.2680     5.5459 H       
  43 H43            0.9378    -5.1180     7.9609 H       
  44 H44           -1.7184    -5.1467     8.2042 H       
  45 H45           -1.1826     4.0047     0.9332 H       
  46 H46           -1.1959     4.0126    -0.8538 H       
  47 H47           -3.2057     5.6805     0.0383 H       
  48 H48           -4.5639     3.9489     1.9282 H       
  49 H49           -6.8329     4.2765     1.4931 H       
  50 H50           -6.5616     5.9047     0.7966 H       
  51 H51           -6.1135     3.1726    -0.5265 H       
  52 H52           -6.9891     4.5966    -1.1795 H       
  53 H53           -4.9520     5.8383    -1.5070 H       
  54 H54           -4.4359     4.1775    -1.9376 H       
  55 H55           -4.9694     6.0928     2.9019 H       
@<TRIPOS>BOND
   1    1    2 ar
   2    1    7 1
   3    1    6 ar
   4    2    3 ar
   5    2    8 1
   6    3    4 ar
   7    3   10 1
   8    4    5 ar
   9    4   32 1
  10    5    6 ar
  11    5   22 1
  12    6   24 1
  13    7   33 1
  14    7   34 1
  15    7   35 1
  16    8    9 3
  17   10   11 1
  18   10   36 1
  19   10   37 1
  20   11   12 ar
  21   11   16 ar
  22   12   13 ar
  23   12   38 1
  24   13   14 ar
  25   13   39 1
  26   14   15 ar
  27   14   17 1
  28   15   16 ar
  29   15   40 1
  30   16   41 1
  31   17   18 1
  32   17   21 1
  33   18   19 2
  34   18   42 1
  35   19   20 1
  36   19   43 1
  37   20   21 2
  38   20   44 1
  39   22   23 am
  40   22   25 2
  41   23   24 1
  42   23   26 1
  43   24   45 1
  44   24   46 1
  45   26   27 1
  46   26   30 1
  47   26   47 1
  48   27   28 1
  49   27   31 1
  50   27   48 1
  51   28   29 1
  52   28   49 1
  53   28   50 1
  54   29   30 1
  55   29   51 1
  56   29   52 1
  57   30   53 1
  58   30   54 1
  59   31   55 1

#	End of record

