#	Name: ASD01148664
#	Creating user name:	WinNT
#	Creation time:	15. 06. 2019 19:03

#	Modifying user name:	WinNT
#	Modification time:	15. 06. 2019 19:03

#	Program:	/corina/corina34_cracker 3.40 0067  02.08.2006

@<TRIPOS>MOLECULE
ASD01148664
  53   55    0    0    0
SMALL
NO_CHARGES


@<TRIPOS>ATOM
   1 N1             3.0567    -1.2576    -4.3972 N.am    
   2 N2             3.1169    -1.3379    -2.9998 N.am    
   3 C3             4.0674    -2.2499    -2.3587 C.3     
   4 C4             2.2632    -2.2296    -5.1533 C.3     
   5 C5             2.3003    -0.5761    -2.2453 C.2     
   6 C6             1.2842     0.2775    -2.8893 C.ar    
   7 C7             0.1019    -0.2881    -3.3901 C.ar    
   8 C8            -0.8474     0.5251    -3.9944 C.ar    
   9 C9            -0.6272     1.8836    -4.1016 C.ar    
  10 C10            0.5396     2.4462    -3.6081 C.ar    
  11 C11            1.4909     1.6543    -2.9991 C.ar    
  12 O12            2.4011    -0.5926    -1.0336 O.2     
  13 C13           -2.1194    -0.0761    -4.5344 C.3     
  14 Cl14           0.8020     4.1563    -3.7510 Cl      
  15 N15           -0.1182    -1.6586    -3.2820 N.am    
  16 C16           -0.0653    -2.2565    -2.0753 C.2     
  17 O17            0.0907    -1.5875    -1.0714 O.2     
  18 N18           -0.2765    -5.8090    -1.1827 N.2     
  19 N19           -0.0809    -4.4675    -0.8314 N.pl3   
  20 C20           -0.1962    -3.7174    -1.9722 C.2     
  21 C21           -0.4591    -4.5931    -3.0065 C.2     
  22 C22           -0.5002    -5.8797    -2.4718 C.2     
  23 C23            0.1841    -3.9815     0.4513 C.ar    
  24 C24            0.3829    -4.8745     1.4991 C.ar    
  25 C25            0.6448    -4.3786     2.7657 C.ar    
  26 C26            0.6986    -3.0028     2.9396 C.ar    
  27 C27            0.4910    -2.1752     1.8531 C.ar    
  28 N28            0.2489    -2.6761     0.6573 N.ar    
  29 Cl29           0.3034    -6.5866     1.2233 Cl      
  30 Br30          -0.8247    -7.4670    -3.4470 Br      
  31 C31            3.7244    -0.2827    -5.0455 C.2     
  32 O32            3.6723    -0.2131    -6.2575 O.2     
  33 O33            4.4492     0.6139    -4.3503 O.3     
  34 C34            5.1421     1.6360    -5.1142 C.3     
  35 H35            4.9801    -1.7080    -2.1107 H       
  36 H36            3.6256    -2.6536    -1.4477 H       
  37 H37            4.3038    -3.0666    -3.0408 H       
  38 H38            1.2368    -1.8728    -5.2389 H       
  39 H39            2.6898    -2.3511    -6.1489 H       
  40 H40            2.2725    -3.1883    -4.6346 H       
  41 H41           -1.3684     2.5119    -4.5732 H       
  42 H42            2.3963     2.0978    -2.6117 H       
  43 H43           -2.9053     0.0011    -3.7830 H       
  44 H44           -2.4221     0.4610    -5.4333 H       
  45 H45           -1.9509    -1.1252    -4.7774 H       
  46 H46           -0.3096    -2.1831    -4.0752 H       
  47 H47           -0.6068    -4.3289    -4.0432 H       
  48 H48            0.8031    -5.0473     3.5989 H       
  49 H49            0.9002    -2.5834     3.9142 H       
  50 H50            0.5320    -1.1039     1.9837 H       
  51 H51            4.4168     2.2210    -5.6798 H       
  52 H52            5.6865     2.2913    -4.4343 H       
  53 H53            5.8430     1.1630    -5.8020 H       
@<TRIPOS>BOND
   1    1    2 1
   2    1    4 1
   3    1   31 am
   4    2    3 1
   5    2    5 am
   6    3   35 1
   7    3   36 1
   8    3   37 1
   9    4   38 1
  10    4   39 1
  11    4   40 1
  12    5    6 1
  13    5   12 2
  14    6    7 ar
  15    6   11 ar
  16    7    8 ar
  17    7   15 1
  18    8    9 ar
  19    8   13 1
  20    9   10 ar
  21    9   41 1
  22   10   11 ar
  23   10   14 1
  24   11   42 1
  25   13   43 1
  26   13   44 1
  27   13   45 1
  28   15   16 am
  29   15   46 1
  30   16   17 2
  31   16   20 1
  32   18   19 1
  33   18   22 2
  34   19   20 1
  35   19   23 1
  36   20   21 2
  37   21   22 1
  38   21   47 1
  39   22   30 1
  40   23   24 ar
  41   23   28 ar
  42   24   25 ar
  43   24   29 1
  44   25   26 ar
  45   25   48 1
  46   26   27 ar
  47   26   49 1
  48   27   28 ar
  49   27   50 1
  50   31   32 2
  51   31   33 1
  52   33   34 1
  53   34   51 1
  54   34   52 1
  55   34   53 1

#	End of record

