#	Name: ASD09740163
#	Creating user name:	WinNT
#	Creation time:	15. 06. 2019 21:22

#	Modifying user name:	WinNT
#	Modification time:	15. 06. 2019 21:22

#	Program:	/corina/corina34_cracker 3.40 0067  02.08.2006

@<TRIPOS>MOLECULE
ASD09740163
  30   32    0    0    0
SMALL
NO_CHARGES


@<TRIPOS>ATOM
   1 S1            -0.0172     1.4168     0.0098 S.o2    
   2 O2            -4.5913     3.0024    -6.3440 O.3     
   3 N3            -4.1236     2.3795    -5.4145 N.2     
   4 C4            -4.0234     4.2160    -6.4129 C.2     
   5 N5            -3.1500     4.2869    -5.4273 N.2     
   6 C6            -3.2245     3.0983    -4.7927 C.2     
   7 C7            -2.4329     2.6833    -3.6074 C.ar    
   8 C8            -4.3198     5.2728    -7.4056 C.ar    
   9 C9            -2.6151     1.4182    -3.0532 C.ar    
  10 C10           -1.5010     3.5554    -3.0489 C.ar    
  11 C11           -0.7677     3.1644    -1.9468 C.ar    
  12 C12           -0.9567     1.9094    -1.3970 C.ar    
  13 C13           -1.8765     1.0375    -1.9511 C.ar    
  14 O14            0.0021    -0.0041     0.0020 O.2     
  15 O15            1.1617     2.2101     0.0028 O.2     
  16 N16           -0.8748     1.8654     1.3536 N.am    
  17 C17           -5.2799     5.0772    -8.4081 C.ar    
  18 C18           -3.6561     6.5029    -7.3724 C.ar    
  19 N19           -3.9436     7.4235    -8.2716 N.ar    
  20 N20           -4.8196     7.2358    -9.1897 N.ar    
  21 C21           -5.5020     6.1117    -9.3003 C.ar    
  22 H22           -3.3333     0.7368    -3.4848 H       
  23 H23           -1.3525     4.5355    -3.4776 H       
  24 H24           -0.0448     3.8396    -1.5132 H       
  25 H25           -2.0205     0.0588    -1.5177 H       
  26 H26           -0.7362     2.7410     1.7474 H       
  27 H27           -1.5157     1.2527     1.7468 H       
  28 H28           -5.8280     4.1496    -8.4820 H       
  29 H29           -2.9123     6.6982    -6.6141 H       
  30 H30           -6.2301     5.9972   -10.0897 H       
@<TRIPOS>BOND
   1    1   14 2
   2    1   15 2
   3    1   16 am
   4    1   12 1
   5    2    3 1
   6    2    4 1
   7    3    6 2
   8    4    5 2
   9    4    8 1
  10    5    6 1
  11    6    7 1
  12    7    9 ar
  13    7   10 ar
  14    8   18 ar
  15    8   17 ar
  16    9   13 ar
  17    9   22 1
  18   10   11 ar
  19   10   23 1
  20   11   12 ar
  21   11   24 1
  22   12   13 ar
  23   13   25 1
  24   16   26 1
  25   16   27 1
  26   17   21 ar
  27   17   28 1
  28   18   19 ar
  29   18   29 1
  30   19   20 ar
  31   20   21 ar
  32   21   30 1

#	End of record

