#	Name: ASD02198222
#	Creating user name:	WinNT
#	Creation time:	15. 06. 2019 20:19

#	Modifying user name:	WinNT
#	Modification time:	15. 06. 2019 20:19

#	Program:	/corina/corina34_cracker 3.40 0067  02.08.2006

@<TRIPOS>MOLECULE
ASD02198222
  48   50    0    0    0
SMALL
NO_CHARGES


@<TRIPOS>ATOM
   1 C1            -0.0129     1.3567     0.1675 C.2     
   2 C2             0.0079    -0.0216     0.0674 C.2     
   3 C3            -1.1803    -0.8208     0.0592 C.1     
   4 S4             1.5678     1.9947     0.1469 S.3     
   5 C5             2.2825     0.3969     0.0018 C.2     
   6 C6             1.2842    -0.5627    -0.0253 C.2     
   7 C7             3.6545     0.1331    -0.0759 C.2     
   8 C8             4.6311     1.2550    -0.0369 C.2     
   9 O9             4.0496    -1.0159    -0.1757 O.2     
  10 N10            1.5318    -1.9176    -0.1336 N.pl3   
  11 N11           -1.1541     2.1114     0.2647 N.pl3   
  12 N12           -2.1229    -1.4548     0.0527 N.1     
  13 C13           -1.0612     3.5699     0.3663 C.3     
  14 C14           -2.3573     4.2179    -0.1515 C.3     
  15 N15            5.9511     0.9967     0.0500 N.am    
  16 O16            4.2389     2.4034    -0.0832 O.2     
  17 C17            6.9410     2.0787    -0.0616 C.3     
  18 C18            7.8980     1.9879     1.1318 C.3     
  19 N19            8.4631     0.6337     1.2003 N.3     
  20 C20            7.4165    -0.3689     1.4396 C.3     
  21 C21            6.4395    -0.3739     0.2650 C.3     
  22 C22            9.5136     0.5528     2.2239 C.3     
  23 C23           -2.9574     5.0079     1.0299 C.3     
  24 C24           -1.7450     5.2947     1.9501 C.3     
  25 C25           -0.9190     3.9887     1.8442 C.3     
  26 H26            2.4444    -2.2404    -0.1956 H       
  27 H27            0.7931    -2.5461    -0.1477 H       
  28 H28           -2.0226     1.6794     0.2661 H       
  29 H29           -0.2081     3.9304    -0.2085 H       
  30 H30           -2.1331     4.8935    -0.9769 H       
  31 H31           -3.0554     3.4472    -0.4783 H       
  32 H32            7.5016     1.9678    -0.9898 H       
  33 H33            6.4325     3.0428    -0.0507 H       
  34 H34            8.7031     2.7122     1.0083 H       
  35 H35            7.3537     2.2019     2.0516 H       
  36 H36            7.8724    -1.3540     1.5394 H       
  37 H37            6.8789    -0.1221     2.3551 H       
  38 H38            5.6004    -1.0323     0.4894 H       
  39 H39            6.9496    -0.7197    -0.6341 H       
  40 H40            9.0928     0.8056     3.1972 H       
  41 H41            9.9147    -0.4603     2.2536 H       
  42 H42           10.3127     1.2530     1.9806 H       
  43 H43           -3.3997     5.9406     0.6797 H       
  44 H44           -3.6998     4.4056     1.5537 H       
  45 H45           -1.1721     6.1451     1.5803 H       
  46 H46           -2.0705     5.4637     2.9765 H       
  47 H47           -1.3321     3.2218     2.4994 H       
  48 H48            0.1264     4.1776     2.0882 H       
@<TRIPOS>BOND
   1    1    2 2
   2    1    4 1
   3    1   11 1
   4    2    3 1
   5    2    6 1
   6    3   12 3
   7    4    5 1
   8    5    6 2
   9    5    7 1
  10    6   10 1
  11    7    8 1
  12    7    9 2
  13    8   15 am
  14    8   16 2
  15   10   26 1
  16   10   27 1
  17   11   13 1
  18   11   28 1
  19   13   14 1
  20   13   25 1
  21   13   29 1
  22   14   23 1
  23   14   30 1
  24   14   31 1
  25   15   17 1
  26   15   21 1
  27   17   18 1
  28   17   32 1
  29   17   33 1
  30   18   19 1
  31   18   34 1
  32   18   35 1
  33   19   20 1
  34   19   22 1
  35   20   21 1
  36   20   36 1
  37   20   37 1
  38   21   38 1
  39   21   39 1
  40   22   40 1
  41   22   41 1
  42   22   42 1
  43   23   24 1
  44   23   43 1
  45   23   44 1
  46   24   25 1
  47   24   45 1
  48   24   46 1
  49   25   47 1
  50   25   48 1

#	End of record

