#	Name: ASD08150438
#	Creating user name:	WinNT
#	Creation time:	15. 06. 2019 21:16

#	Modifying user name:	WinNT
#	Modification time:	15. 06. 2019 21:16

#	Program:	/corina/corina34_cracker 3.40 0067  02.08.2006

@<TRIPOS>MOLECULE
ASD08150438
  58   63    0    0    0
SMALL
NO_CHARGES


@<TRIPOS>ATOM
   1 N1            -0.1283     6.1901    -0.0311 N.am    
   2 C2             0.9463     5.3790    -0.0784 C.2     
   3 C3             2.1592     5.8172    -0.6478 C.2     
   4 C4             2.2604     7.0704    -1.1591 C.2     
   5 C5             1.1316     7.9264    -1.1116 C.ar    
   6 C6             1.1828     9.2352    -1.6281 C.ar    
   7 N7             0.1399    10.0225    -1.5833 N.ar    
   8 C8            -1.0284     9.6361    -1.0489 C.ar    
   9 C9            -1.1709     8.3355    -0.5053 C.ar    
  10 C10           -0.0608     7.4592    -0.5379 C.ar    
  11 C11           -2.3925     7.9428     0.0501 C.ar    
  12 C12           -3.4539     8.8333     0.0627 C.ar    
  13 C13           -3.3055    10.1185    -0.4775 C.ar    
  14 C14           -2.1237    10.5150    -1.0212 C.ar    
  15 O15            0.8690     4.2510     0.3778 O.2     
  16 C16           -4.7531     8.4249     0.6499 C.ar    
  17 C17           -1.3230     5.7296     0.5347 C.ar    
  18 C18           -2.2167     4.9921    -0.2310 C.ar    
  19 C19           -3.3946     4.5393     0.3302 C.ar    
  20 C20           -3.6847     4.8199     1.6529 C.ar    
  21 C21           -2.7971     5.5543     2.4178 C.ar    
  22 C22           -1.6144     6.0044     1.8645 C.ar    
  23 C23           -4.9711     4.3246     2.2619 C.3     
  24 C24           -5.5251     9.3439     1.3459 C.ar    
  25 C25           -5.2136     7.1070     0.5005 C.ar    
  26 N26           -6.3563     6.7190     1.0071 N.ar    
  27 C27           -7.1416     7.5571     1.6921 C.ar    
  28 C28           -6.7482     8.9059     1.8821 C.ar    
  29 C29           -7.5813     9.7774     2.6039 C.ar    
  30 C30           -5.3901     5.2589     3.3987 C.3     
  31 C31           -6.0652     4.2998     1.1927 C.3     
  32 C32           -8.3658     7.1219     2.2289 C.ar    
  33 C33           -9.1482     7.9932     2.9223 C.ar    
  34 C34           -8.7570     9.3171     3.1128 C.ar    
  35 C35           -4.7719     2.9657     2.7917 C.1     
  36 N36           -4.6182     1.9171     3.2006 N.1     
  37 H37            3.0109     5.1537    -0.6769 H       
  38 H38            3.1878     7.4107    -1.5957 H       
  39 H39            2.1005     9.5955    -2.0691 H       
  40 H40           -2.5079     6.9527     0.4658 H       
  41 H41           -4.1410    10.8027    -0.4620 H       
  42 H42           -2.0269    11.5089    -1.4326 H       
  43 H43           -1.9910     4.7733    -1.2642 H       
  44 H44           -4.0900     3.9658    -0.2646 H       
  45 H45           -3.0269     5.7724     3.4503 H       
  46 H46           -0.9216     6.5779     2.4624 H       
  47 H47           -5.1960    10.3647     1.4722 H       
  48 H48           -4.6107     6.3967    -0.0458 H       
  49 H49           -7.2903    10.8066     2.7544 H       
  50 H50           -5.1534     6.2881     3.1291 H       
  51 H51           -6.4626     5.1654     3.5692 H       
  52 H52           -4.8528     4.9887     4.3078 H       
  53 H53           -6.2399     3.2717     0.8754 H       
  54 H54           -6.9853     4.7143     1.6046 H       
  55 H55           -5.7498     4.8957     0.3362 H       
  56 H56           -8.6846     6.0993     2.0911 H       
  57 H57          -10.0878     7.6529     3.3320 H       
  58 H58           -9.3968     9.9876     3.6672 H       
@<TRIPOS>BOND
   1    1    2 am
   2    1   10 1
   3    1   17 1
   4    2    3 1
   5    2   15 2
   6    3    4 2
   7    3   37 1
   8    4    5 1
   9    4   38 1
  10    5    6 ar
  11    5   10 ar
  12    6    7 ar
  13    6   39 1
  14    7    8 ar
  15    8    9 ar
  16    8   14 ar
  17    9   10 ar
  18    9   11 ar
  19   11   12 ar
  20   11   40 1
  21   12   13 ar
  22   12   16 1
  23   13   14 ar
  24   13   41 1
  25   14   42 1
  26   16   24 ar
  27   16   25 ar
  28   17   18 ar
  29   17   22 ar
  30   18   19 ar
  31   18   43 1
  32   19   20 ar
  33   19   44 1
  34   20   21 ar
  35   20   23 1
  36   21   22 ar
  37   21   45 1
  38   22   46 1
  39   23   30 1
  40   23   31 1
  41   23   35 1
  42   24   28 ar
  43   24   47 1
  44   25   26 ar
  45   25   48 1
  46   26   27 ar
  47   27   28 ar
  48   27   32 ar
  49   28   29 ar
  50   29   34 ar
  51   29   49 1
  52   30   50 1
  53   30   51 1
  54   30   52 1
  55   31   53 1
  56   31   54 1
  57   31   55 1
  58   32   33 ar
  59   32   56 1
  60   33   34 ar
  61   33   57 1
  62   34   58 1
  63   35   36 3

#	End of record

