#	Name: ASD08830176
#	Creating user name:	WinNT
#	Creation time:	15. 06. 2019 21:19

#	Modifying user name:	WinNT
#	Modification time:	15. 06. 2019 21:19

#	Program:	/corina/corina34_cracker 3.40 0067  02.08.2006

@<TRIPOS>MOLECULE
ASD08830176
  38   40    0    0    0
SMALL
NO_CHARGES


@<TRIPOS>ATOM
   1 C1            -0.0179     1.4678     0.0101 C.ar    
   2 C2             0.0021    -0.0041     0.0020 C.2     
   3 C3            -1.2926    -0.7753     0.0102 C.3     
   4 C4            -0.9927    -2.2755    -0.0007 C.3     
   5 N5            -2.2547    -3.0273     0.0073 N.3     
   6 O6             1.0602    -0.5960    -0.0113 O.2     
   7 C7             1.1771     2.1722     0.0025 C.ar    
   8 C8             1.1524     3.5761     0.0103 C.ar    
   9 C9            -0.0961     4.2467     0.0257 C.ar    
  10 C10           -1.2912     3.5063     0.0336 C.ar    
  11 C11           -1.2499     2.1496     0.0197 C.ar    
  12 N12            2.2881     4.2829     0.0037 N.ar    
  13 C13            2.2758     5.5929     0.0113 C.ar    
  14 C14            1.0828     6.3145     0.0264 C.ar    
  15 C15           -0.1128     5.6547     0.0334 C.ar    
  16 C16           -2.0181    -4.4568    -0.2410 C.3     
  17 C17           -3.3490    -5.2097    -0.1649 C.3     
  18 O18           -4.2665    -4.6418    -1.1035 O.3     
  19 C19           -4.5205    -3.2506    -0.8906 C.3     
  20 C20           -3.2015    -2.4779    -0.9741 C.3     
  21 H21           -1.8592    -0.5245     0.9070 H       
  22 H22           -1.8762    -0.5150    -0.8728 H       
  23 H23           -0.4261    -2.5263    -0.8975 H       
  24 H24           -0.4091    -2.5358     0.8824 H       
  25 H25            2.1194     1.6448    -0.0090 H       
  26 H26           -2.2426     4.0172     0.0455 H       
  27 H27           -2.1717     1.5870     0.0255 H       
  28 H28            3.2140     6.1277     0.0059 H       
  29 H29            1.1043     7.3943     0.0327 H       
  30 H30           -1.0461     6.1982     0.0448 H       
  31 H31           -1.5824    -4.5869    -1.2316 H       
  32 H32           -1.3346    -4.8488     0.5123 H       
  33 H33           -3.1869    -6.2606    -0.4046 H       
  34 H34           -3.7584    -5.1242     0.8417 H       
  35 H35           -5.2057    -2.8846    -1.6552 H       
  36 H36           -4.9640    -3.1082     0.0948 H       
  37 H37           -3.3819    -1.4252    -0.7560 H       
  38 H38           -2.7847    -2.5763    -1.9764 H       
@<TRIPOS>BOND
   1    1    2 1
   2    1    7 ar
   3    1   11 ar
   4    2    3 1
   5    2    6 2
   6    3    4 1
   7    3   21 1
   8    3   22 1
   9    4    5 1
  10    4   23 1
  11    4   24 1
  12    5   16 1
  13    5   20 1
  14    7    8 ar
  15    7   25 1
  16    8    9 ar
  17    8   12 ar
  18    9   10 ar
  19    9   15 ar
  20   10   11 ar
  21   10   26 1
  22   11   27 1
  23   12   13 ar
  24   13   14 ar
  25   13   28 1
  26   14   15 ar
  27   14   29 1
  28   15   30 1
  29   16   17 1
  30   16   31 1
  31   16   32 1
  32   17   18 1
  33   17   33 1
  34   17   34 1
  35   18   19 1
  36   19   20 1
  37   19   35 1
  38   19   36 1
  39   20   37 1
  40   20   38 1

#	End of record

