#	Name: ASD01880875
#	Creating user name:	WinNT
#	Creation time:	15. 06. 2019 19:41

#	Modifying user name:	WinNT
#	Modification time:	15. 06. 2019 19:41

#	Program:	/corina/corina34_cracker 3.40 0067  02.08.2006

@<TRIPOS>MOLECULE
ASD01880875
  42   44    0    0    0
SMALL
NO_CHARGES


@<TRIPOS>ATOM
   1 N1            -0.0159     1.3188     0.0093 N.ar    
   2 C2             0.0021    -0.0041     0.0020 C.ar    
   3 N3             1.1382    -0.6824    -0.0125 N.ar    
   4 C4             2.3022    -0.0534    -0.0202 C.ar    
   5 C5             2.3215     1.3321    -0.0130 C.ar    
   6 C6             1.1124     2.0110     0.0022 C.ar    
   7 C7             3.6273     2.0844    -0.0209 C.3     
   8 O8             4.7125     1.1548    -0.0358 O.3     
   9 C9             5.9670     1.6723    -0.0445 C.ar    
  10 C10            7.0692     0.8231    -0.0592 C.ar    
  11 C11            8.3376     1.3479    -0.0685 C.ar    
  12 C12            8.5305     2.7333    -0.0633 C.ar    
  13 C13            7.4200     3.5818    -0.0490 C.ar    
  14 C14            6.1496     3.0501    -0.0446 C.ar    
  15 C15            9.7122     0.7268    -0.0845 C.3     
  16 N16           10.6657     1.8421    -0.0879 N.am    
  17 C17            9.9797     2.9978    -0.0756 C.2     
  18 O18           10.4835     4.1044    -0.0751 O.2     
  19 C19            7.6124     5.0765    -0.0426 C.3     
  20 I20            1.0720     4.1056     0.0132 I       
  21 O21           -1.1713    -0.6808     0.0100 O.3     
  22 C22           -1.0973    -2.1078     0.0017 C.3     
  23 C23           12.6201     1.6798    -1.5491 C.3     
  24 C24           12.1252     1.7166    -0.1018 C.3     
  25 H25            3.2259    -0.6129    -0.0317 H       
  26 H26            3.6775     2.7158    -0.9080 H       
  27 H27            3.6938     2.7062     0.8719 H       
  28 H28            6.9269    -0.2475    -0.0629 H       
  29 H29            5.2919     3.7063    -0.0339 H       
  30 H30            9.8565     0.1131     0.8047 H       
  31 H31            9.8397     0.1222    -0.9825 H       
  32 H32            7.6498     5.4424    -1.0687 H       
  33 H33            6.7807     5.5477     0.4811 H       
  34 H34            8.5460     5.3205     0.4643 H       
  35 H35           -0.5566    -2.4488     0.8845 H       
  36 H36           -2.1048    -2.5239     0.0094 H       
  37 H37           -0.5743    -2.4393    -0.8954 H       
  38 H38           12.1772     0.8267    -2.0630 H       
  39 H39           12.3298     2.6001    -2.0558 H       
  40 H40           13.7061     1.5864    -1.5594 H       
  41 H41           12.5682     2.5696     0.4121 H       
  42 H42           12.4156     0.7962     0.4050 H       
@<TRIPOS>BOND
   1    1    2 ar
   2    1    6 ar
   3    2    3 ar
   4    2   21 1
   5    3    4 ar
   6    4    5 ar
   7    4   25 1
   8    5    6 ar
   9    5    7 1
  10    6   20 1
  11    7    8 1
  12    7   26 1
  13    7   27 1
  14    8    9 1
  15    9   10 ar
  16    9   14 ar
  17   10   11 ar
  18   10   28 1
  19   11   12 ar
  20   11   15 1
  21   12   13 ar
  22   12   17 1
  23   13   14 ar
  24   13   19 1
  25   14   29 1
  26   15   16 1
  27   15   30 1
  28   15   31 1
  29   16   17 am
  30   16   24 1
  31   17   18 2
  32   19   32 1
  33   19   33 1
  34   19   34 1
  35   21   22 1
  36   22   35 1
  37   22   36 1
  38   22   37 1
  39   23   24 1
  40   23   38 1
  41   23   39 1
  42   23   40 1
  43   24   41 1
  44   24   42 1

#	End of record

