#	Name: ASD03330811
#	Creating user name:	WinNT
#	Creation time:	15. 06. 2019 20:38

#	Modifying user name:	WinNT
#	Modification time:	15. 06. 2019 20:38

#	Program:	/corina/corina34_cracker 3.40 0067  02.08.2006

@<TRIPOS>MOLECULE
ASD03330811
  60   62    0    0    0
SMALL
NO_CHARGES


@<TRIPOS>ATOM
   1 C1            -0.0395     1.4903     1.3428 C.2     
   2 N2            -0.0196     0.1629     1.6382 N.pl3   
   3 C3             1.2395     1.8544     1.0501 C.2     
   4 N4             2.0156     0.7528     1.1520 N.2     
   5 C5             1.2672    -0.2684     1.4989 C.2     
   6 C6             1.7398    -1.6542     1.7043 C.ar    
   7 C7             1.6958     3.2077     0.6872 C.2     
   8 O8             0.8974     4.1233     0.6285 O.2     
   9 C9             3.4515     4.7763     0.0596 C.3     
  10 N10            2.9979     3.4309     0.4204 N.am    
  11 C11            4.9112     4.9236     0.4043 C.2     
  12 C12           -1.1801    -0.6346     2.0443 C.3     
  13 C13           -2.3486    -0.3388     1.0989 C.3     
  14 C14           -3.1367     0.8616     1.6130 C.3     
  15 N15           -2.2551     1.8292     2.2690 N.3     
  16 C16           -1.2622     2.3706     1.3292 C.3     
  17 N17            5.4147     6.1384     0.6994 N.am    
  18 O18            5.6328     3.9489     0.4161 O.2     
  19 C19            6.8516     6.2980     0.9362 C.3     
  20 C20            3.2576     4.9942    -1.4423 C.3     
  21 C21            1.7768     4.8371    -1.7935 C.3     
  22 C22            3.7242     6.4021    -1.8178 C.3     
  23 C23            4.0780     3.9614    -2.2176 C.3     
  24 C24           -3.0308     2.9083     2.8949 C.3     
  25 C25            2.5297    -2.2776     0.7349 C.ar    
  26 C26            2.9677    -3.5734     0.9342 C.ar    
  27 C27            2.6258    -4.2528     2.0894 C.ar    
  28 C28            1.8442    -3.6424     3.0535 C.ar    
  29 C29            1.4034    -2.3450     2.8714 C.ar    
  30 F30            2.8643    -1.6158    -0.3943 F       
  31 F31            0.6405    -1.7502     3.8144 F       
  32 H32            2.8714     5.5156     0.6119 H       
  33 H33            3.6346     2.7006     0.4673 H       
  34 H34           -0.9296    -1.6942     1.9935 H       
  35 H35           -1.4620    -0.3744     3.0645 H       
  36 H36           -1.9628    -0.1197     0.1033 H       
  37 H37           -3.0039    -1.2084     1.0494 H       
  38 H38           -3.6382     1.3456     0.7749 H       
  39 H39           -3.8856     0.5186     2.3269 H       
  40 H40           -0.9872     3.3811     1.6315 H       
  41 H41           -1.6849     2.3918     0.3247 H       
  42 H42            4.8257     6.9071     0.7550 H       
  43 H43            7.0693     7.3426     1.1588 H       
  44 H44            7.1520     5.6764     1.7797 H       
  45 H45            7.4025     5.9937     0.0462 H       
  46 H46            1.1924     5.5729    -1.2412 H       
  47 H47            1.6387     4.9924    -2.8635 H       
  48 H48            1.4444     3.8341    -1.5260 H       
  49 H49            4.7996     6.4829    -1.6592 H       
  50 H50            3.4963     6.5928    -2.8665 H       
  51 H51            3.2092     7.1337    -1.1952 H       
  52 H52            3.7456     2.9583    -1.9501 H       
  53 H53            3.9399     4.1166    -3.2876 H       
  54 H54            5.1330     4.0733    -1.9674 H       
  55 H55           -3.7037     2.4863     3.6414 H       
  56 H56           -2.3516     3.6128     3.3748 H       
  57 H57           -3.6128     3.4265     2.1327 H       
  58 H58            3.5780    -4.0568     0.1857 H       
  59 H59            2.9707    -5.2652     2.2393 H       
  60 H60            1.5811    -4.1794     3.9529 H       
@<TRIPOS>BOND
   1    1    2 1
   2    1    3 2
   3    1   16 1
   4    2   12 1
   5    2    5 1
   6    3    4 1
   7    3    7 1
   8    4    5 2
   9    5    6 1
  10    6   25 ar
  11    6   29 ar
  12    7    8 2
  13    7   10 am
  14    9   10 1
  15    9   11 1
  16    9   20 1
  17    9   32 1
  18   10   33 1
  19   11   18 2
  20   11   17 am
  21   12   13 1
  22   12   34 1
  23   12   35 1
  24   13   14 1
  25   13   36 1
  26   13   37 1
  27   14   15 1
  28   14   38 1
  29   14   39 1
  30   15   16 1
  31   15   24 1
  32   16   40 1
  33   16   41 1
  34   17   19 1
  35   17   42 1
  36   19   43 1
  37   19   44 1
  38   19   45 1
  39   20   21 1
  40   20   22 1
  41   20   23 1
  42   21   46 1
  43   21   47 1
  44   21   48 1
  45   22   49 1
  46   22   50 1
  47   22   51 1
  48   23   52 1
  49   23   53 1
  50   23   54 1
  51   24   55 1
  52   24   56 1
  53   24   57 1
  54   25   26 ar
  55   25   30 1
  56   26   27 ar
  57   26   58 1
  58   27   28 ar
  59   27   59 1
  60   28   29 ar
  61   28   60 1
  62   29   31 1

#	End of record

