#	Name: ASD01916766
#	Creating user name:	WinNT
#	Creation time:	15. 06. 2019 20:07

#	Modifying user name:	WinNT
#	Modification time:	15. 06. 2019 20:07

#	Program:	/corina/corina34_cracker 3.40 0067  02.08.2006

@<TRIPOS>MOLECULE
ASD01916766
  58   61    0    0    0
SMALL
NO_CHARGES


@<TRIPOS>ATOM
   1 C1            -0.0167     1.3837     0.0096 C.ar    
   2 C2             0.0021    -0.0041     0.0020 C.ar    
   3 C3            -1.1833    -0.7154     0.0091 C.ar    
   4 C4            -2.3922    -0.0493     0.0237 C.ar    
   5 C5            -2.4197     1.3441     0.0319 C.ar    
   6 C6            -1.2257     2.0601     0.0306 C.ar    
   7 C7            -3.7183     2.0627     0.0472 C.2     
   8 N8            -4.9286     1.4881     0.0543 N.2     
   9 N9            -3.8714     3.3686     0.0617 N.2     
  10 N10           -5.2543     3.6129     0.0726 N.pl3   
  11 C11           -5.8553     2.4094     0.0676 C.2     
  12 C12           -7.3424     2.1654     0.0751 C.3     
  13 C13           -7.7367     1.3802    -1.1774 C.3     
  14 C14           -5.9130     4.9213     0.0901 C.3     
  15 C15           -6.1479     5.3845    -1.3245 C.2     
  16 O16           -5.7994     4.6900    -2.2558 O.2     
  17 N17           -6.7452     6.5705    -1.5549 N.am    
  18 C18           -6.9841     7.0415    -2.9276 C.3     
  19 C19           -8.4562     7.4478    -3.0537 C.3     
  20 N20           -8.7859     8.4155    -1.9988 N.3     
  21 C21           -8.6402     7.8192    -0.6642 C.3     
  22 C22           -7.1811     7.4254    -0.4402 C.3     
  23 C23          -10.0590     8.9285    -2.1766 C.ar    
  24 N24          -10.5235     9.8197    -1.3131 N.ar    
  25 N25          -10.7822     8.5208    -3.2091 N.ar    
  26 C26          -11.7359    10.3296    -1.4542 C.ar    
  27 C27          -12.5215     9.9208    -2.5204 C.ar    
  28 C28          -12.0024     8.9912    -3.4078 C.ar    
  29 C29           -7.7211     1.3620     1.3209 C.3     
  30 O30            1.1509     2.0791     0.0022 O.3     
  31 C31            2.3597     1.3171    -0.0134 C.3     
  32 H32            0.9454    -0.5297    -0.0098 H       
  33 H33           -1.1635    -1.7952     0.0027 H       
  34 H34           -3.3166    -0.6078     0.0285 H       
  35 H35           -1.2418     3.1400     0.0369 H       
  36 H36           -7.8673     3.1206     0.0853 H       
  37 H37           -7.2118     0.4249    -1.1877 H       
  38 H38           -8.8123     1.2037    -1.1720 H       
  39 H39           -7.4669     1.9525    -2.0650 H       
  40 H40           -6.8680     4.8404     0.6093 H       
  41 H41           -5.2781     5.6408     0.6073 H       
  42 H42           -6.3477     7.9017    -3.1355 H       
  43 H43           -6.7636     6.2404    -3.6331 H       
  44 H44           -8.6259     7.9020    -4.0299 H       
  45 H45           -9.0874     6.5654    -2.9480 H       
  46 H46           -8.9433     8.5428     0.0925 H       
  47 H47           -9.2688     6.9317    -0.5918 H       
  48 H48           -7.0890     6.8801     0.4991 H       
  49 H49           -6.5607     8.3210    -0.4092 H       
  50 H50          -12.1092    11.0554    -0.7469 H       
  51 H51          -13.5151    10.3208    -2.6589 H       
  52 H52          -12.5887     8.6519    -4.2490 H       
  53 H53           -7.4402     1.9214     2.2132 H       
  54 H54           -8.7967     1.1855     1.3263 H       
  55 H55           -7.1962     0.4068     1.3107 H       
  56 H56            3.2150     1.9927    -0.0179 H       
  57 H57            2.4015     0.6839     0.8728 H       
  58 H58            2.3845     0.6935    -0.9070 H       
@<TRIPOS>BOND
   1    1    2 ar
   2    1   30 1
   3    1    6 ar
   4    2    3 ar
   5    2   32 1
   6    3    4 ar
   7    3   33 1
   8    4    5 ar
   9    4   34 1
  10    5    6 ar
  11    5    7 1
  12    6   35 1
  13    7    8 1
  14    7    9 2
  15    8   11 2
  16    9   10 1
  17   10   11 1
  18   10   14 1
  19   11   12 1
  20   12   13 1
  21   12   29 1
  22   12   36 1
  23   13   37 1
  24   13   38 1
  25   13   39 1
  26   14   15 1
  27   14   40 1
  28   14   41 1
  29   15   16 2
  30   15   17 am
  31   17   18 1
  32   17   22 1
  33   18   19 1
  34   18   42 1
  35   18   43 1
  36   19   20 1
  37   19   44 1
  38   19   45 1
  39   20   21 1
  40   20   23 1
  41   21   22 1
  42   21   46 1
  43   21   47 1
  44   22   48 1
  45   22   49 1
  46   23   24 ar
  47   23   25 ar
  48   24   26 ar
  49   25   28 ar
  50   26   27 ar
  51   26   50 1
  52   27   28 ar
  53   27   51 1
  54   28   52 1
  55   29   53 1
  56   29   54 1
  57   29   55 1
  58   30   31 1
  59   31   56 1
  60   31   57 1
  61   31   58 1

#	End of record

