#	Name: ASD01881663
#	Creating user name:	WinNT
#	Creation time:	15. 06. 2019 19:43

#	Modifying user name:	WinNT
#	Modification time:	15. 06. 2019 19:43

#	Program:	/corina/corina34_cracker 3.40 0067  02.08.2006

@<TRIPOS>MOLECULE
ASD01881663
  58   62    0    0    0
SMALL
NO_CHARGES


@<TRIPOS>ATOM
   1 C1            -0.0161     1.3337     0.0094 C.2     
   2 N2             0.0021    -0.0041     0.0020 N.am    
   3 C3             1.2613    -0.4841    -0.0126 C.2     
   4 C4             2.1640     0.7337    -0.0147 C.3     
   5 N5             1.2200     1.8645     0.0004 N.am    
   6 O6            -1.0354     1.9955     0.0180 O.2     
   7 O7             1.6013    -1.6477    -0.0215 O.2     
   8 C8             1.5609     3.2893     0.0041 C.3     
   9 C9             0.9648     3.9528    -1.2356 C.3     
  10 C10            1.1453     5.4699    -1.1056 C.3     
  11 C11            0.2200     5.9714     0.0011 C.3     
  12 C12            0.4076     5.1605     1.2569 C.ar    
  13 C13           -0.0641     5.6971     2.4457 C.ar    
  14 C14            0.0741     4.9964     3.6392 C.ar    
  15 C15            0.6916     3.7463     3.6340 C.ar    
  16 C16            1.1582     3.2225     2.4494 C.ar    
  17 C17            1.0203     3.9262     1.2581 C.ar    
  18 C18           -1.7709     6.9744     8.6679 C.2     
  19 N19           -1.4197     5.9720     9.4914 N.am    
  20 C20           -0.7660     4.9208     8.7038 C.3     
  21 C21           -0.7584     5.4068     7.2757 C.ar    
  22 C22           -0.2899     4.8677     6.1032 C.ar    
  23 C23           -0.4309     5.5748     4.9077 C.ar    
  24 C24           -1.0473     6.8266     4.9080 C.ar    
  25 C25           -1.5169     7.3668     6.0834 C.ar    
  26 C26           -1.3769     6.6608     7.2819 C.ar    
  27 C27           -1.6511     5.9353    10.9375 C.3     
  28 C28           -3.0104     5.2926    11.2203 C.3     
  29 F29           -3.0246     3.9890    10.7125 F       
  30 F30           -3.2314     5.2575    12.6013 F       
  31 F31           -4.0182     6.0434    10.6058 F       
  32 O32           -2.3374     7.9924     9.0153 O.2     
  33 C33           -1.1986    -0.8435     0.0097 C.3     
  34 C34           -1.6312    -1.1279    -1.4300 C.3     
  35 H35            2.7924     0.7467     0.8759 H       
  36 H36            2.7753     0.7564    -0.9169 H       
  37 H37            2.6452     3.3988    -0.0159 H       
  38 H38            1.4814     3.5966    -2.1269 H       
  39 H39           -0.0964     3.7139    -1.3055 H       
  40 H40            2.1804     5.6959    -0.8494 H       
  41 H41            0.8860     5.9525    -2.0479 H       
  42 H42            0.4452     7.0169     0.2115 H       
  43 H43           -0.8150     5.8869    -0.3300 H       
  44 H44           -0.5416     6.6657     2.4447 H       
  45 H45            0.8035     3.1921     4.5542 H       
  46 H46            1.6366     2.2542     2.4454 H       
  47 H47            0.2553     4.7707     9.0539 H       
  48 H48           -1.3291     3.9906     8.7800 H       
  49 H49            0.1871     3.8987     6.1057 H       
  50 H50           -1.1559     7.3734     3.9830 H       
  51 H51           -1.9935     8.3359     6.0800 H       
  52 H52           -0.8659     5.3502    11.4163 H       
  53 H53           -1.6400     6.9509    11.3332 H       
  54 H54           -0.9813    -1.7838     0.5163 H       
  55 H55           -2.0010    -0.3250     0.5345 H       
  56 H56           -1.8486    -0.1876    -1.9366 H       
  57 H57           -0.8288    -1.6464    -1.9548 H       
  58 H58           -2.5246    -1.7525    -1.4242 H       
@<TRIPOS>BOND
   1    1    2 am
   2    1    5 am
   3    1    6 2
   4    2    3 am
   5    2   33 1
   6    3    4 1
   7    3    7 2
   8    4    5 1
   9    4   35 1
  10    4   36 1
  11    5    8 1
  12    8    9 1
  13    8   17 1
  14    8   37 1
  15    9   10 1
  16    9   38 1
  17    9   39 1
  18   10   11 1
  19   10   40 1
  20   10   41 1
  21   11   12 1
  22   11   42 1
  23   11   43 1
  24   12   13 ar
  25   12   17 ar
  26   13   14 ar
  27   13   44 1
  28   14   15 ar
  29   14   23 1
  30   15   16 ar
  31   15   45 1
  32   16   17 ar
  33   16   46 1
  34   18   19 am
  35   18   26 1
  36   18   32 2
  37   19   20 1
  38   19   27 1
  39   20   21 1
  40   20   47 1
  41   20   48 1
  42   21   22 ar
  43   21   26 ar
  44   22   23 ar
  45   22   49 1
  46   23   24 ar
  47   24   25 ar
  48   24   50 1
  49   25   26 ar
  50   25   51 1
  51   27   28 1
  52   27   52 1
  53   27   53 1
  54   28   29 1
  55   28   30 1
  56   28   31 1
  57   33   34 1
  58   33   54 1
  59   33   55 1
  60   34   56 1
  61   34   57 1
  62   34   58 1

#	End of record

