#	Name: ASD04910172
#	Creating user name:	WinNT
#	Creation time:	15. 06. 2019 20:55

#	Modifying user name:	WinNT
#	Modification time:	15. 06. 2019 20:55

#	Program:	/corina/corina34_cracker 3.40 0067  02.08.2006

@<TRIPOS>MOLECULE
ASD04910172
  32   33    0    0    0
SMALL
NO_CHARGES


@<TRIPOS>ATOM
   1 C1            -0.0168     1.3842     0.0097 C.ar    
   2 C2             0.0021    -0.0041     0.0020 C.ar    
   3 C3             1.2282    -0.6660    -0.0132 C.ar    
   4 C4             2.3858     0.0919    -0.0202 C.ar    
   5 C5             2.2883     1.4775    -0.0118 C.ar    
   6 N6             1.1072     2.0732     0.0026 N.ar    
   7 N7            -1.1939    -0.7286     0.0100 N.pl3   
   8 N8             3.4537     2.2527    -0.0183 N.pl3   
   9 N9             4.7678     1.7674    -0.0334 N.2     
  10 C10            5.5827     2.7911    -0.0352 C.2     
  11 C11            4.8183     3.9630    -0.0212 C.2     
  12 C12            3.5122     3.6095    -0.0169 C.2     
  13 C13            5.3552     5.3712    -0.0177 C.3     
  14 C14            6.8846     5.3339    -0.0324 C.3     
  15 C15            4.8511     6.1122    -1.2577 C.3     
  16 C16            4.8748     6.0970     1.2406 C.3     
  17 H17           -0.9626     1.9054     0.0169 H       
  18 H18            1.2738    -1.7451    -0.0191 H       
  19 H19            3.3533    -0.3879    -0.0316 H       
  20 H20           -2.0439    -0.2615     0.0209 H       
  21 H21           -1.1735    -1.6984     0.0046 H       
  22 H22            6.6614     2.7403    -0.0452 H       
  23 H23            2.6689     4.2841    -0.0107 H       
  24 H24            7.2269     4.8168    -0.9289 H       
  25 H25            7.2729     6.3524    -0.0299 H       
  26 H26            7.2437     4.8059     0.8510 H       
  27 H27            3.7615     6.1388    -1.2472 H       
  28 H28            5.2394     7.1307    -1.2552 H       
  29 H29            5.1933     5.5952    -2.1541 H       
  30 H30            5.2339     5.5690     2.1240 H       
  31 H31            5.2631     7.1154     1.2432 H       
  32 H32            3.7851     6.1235     1.2511 H       
@<TRIPOS>BOND
   1    1    2 ar
   2    1    6 ar
   3    1   17 1
   4    2    3 ar
   5    2    7 1
   6    3    4 ar
   7    3   18 1
   8    4    5 ar
   9    4   19 1
  10    5    6 ar
  11    5    8 1
  12    7   20 1
  13    7   21 1
  14    8    9 1
  15    8   12 1
  16    9   10 2
  17   10   11 1
  18   10   22 1
  19   11   12 2
  20   11   13 1
  21   12   23 1
  22   13   14 1
  23   13   16 1
  24   13   15 1
  25   14   24 1
  26   14   25 1
  27   14   26 1
  28   15   27 1
  29   15   28 1
  30   15   29 1
  31   16   30 1
  32   16   31 1
  33   16   32 1

#	End of record

