#	Name: ASD01816334
#	Creating user name:	WinNT
#	Creation time:	15. 06. 2019 19:35

#	Modifying user name:	WinNT
#	Modification time:	15. 06. 2019 19:35

#	Program:	/corina/corina34_cracker 3.40 0067  02.08.2006

@<TRIPOS>MOLECULE
ASD01816334
  61   67    0    0    0
SMALL
NO_CHARGES


@<TRIPOS>ATOM
   1 C1            -0.0171     1.3995     0.3083 C.ar    
   2 C2            -0.0020     0.0140     0.3152 C.ar    
   3 C3             1.1908    -0.6764     0.2570 C.ar    
   4 C4             2.3943     0.0170     0.1900 C.ar    
   5 C5             2.3754     1.4217     0.1826 C.ar    
   6 C6             1.1660     2.1063     0.2422 C.ar    
   7 N7             3.5945    -0.6696     0.1318 N.pl3   
   8 C8             4.7864    -0.0543     0.0659 C.2     
   9 C9             4.8926     1.3141     0.0522 C.2     
  10 C10            3.6635     2.1375     0.1110 C.2     
  11 C11            5.9910     2.2738    -0.0105 C.2     
  12 N12            5.4222     3.4985     0.0117 N.am    
  13 N13            4.0314     3.3862     0.0845 N.2     
  14 O14            7.1821     2.0206    -0.0703 O.2     
  15 C15            3.5634    -2.1342     0.1432 C.3     
  16 C16            3.4786    -2.6458    -1.2718 C.ar    
  17 C17            4.6362    -2.9059    -1.9820 C.ar    
  18 C18            4.5617    -3.3745    -3.2791 C.ar    
  19 C19            3.3229    -3.5847    -3.8697 C.ar    
  20 C20            2.1624    -3.3230    -3.1539 C.ar    
  21 C21            2.2433    -2.8596    -1.8553 C.ar    
  22 N22            3.2440    -4.0598    -5.1862 N.pl3   
  23 C23            2.1077    -4.3063    -5.8766 C.2     
  24 C24            2.4605    -4.7506    -7.1051 C.2     
  25 C25            3.8581    -4.7769    -7.1687 C.2     
  26 N26            4.3284    -4.3574    -6.0217 N.2     
  27 C27            6.0995     4.6629    -0.0306 C.2     
  28 O28            7.3143     4.6613     0.0123 O.2     
  29 C29            5.3667     5.9391    -0.1289 C.ar    
  30 C30            6.0542     7.1518    -0.0246 C.ar    
  31 C31            5.3666     8.3411    -0.1169 C.ar    
  32 C32            3.9898     8.3370    -0.3132 C.ar    
  33 C33            3.3021     7.1326    -0.4170 C.ar    
  34 C34            3.9836     5.9392    -0.3324 C.ar    
  35 N35            3.2952     9.5465    -0.4059 N.pl3   
  36 C36            1.9488     9.6797    -0.5971 C.2     
  37 C37            1.6567    10.9953    -0.6319 C.2     
  38 C38            2.8639    11.7021    -0.4561 C.2     
  39 C39            3.8488    10.7924    -0.3144 C.2     
  40 H40           -0.9582     1.9277     0.3502 H       
  41 H41           -0.9331    -0.5307     0.3671 H       
  42 H42            1.1900    -1.7563     0.2638 H       
  43 H43            1.1531     3.1862     0.2368 H       
  44 H44            5.6849    -0.6520     0.0229 H       
  45 H45            4.4711    -2.5132     0.6128 H       
  46 H46            2.6940    -2.4748     0.7054 H       
  47 H47            5.5996    -2.7422    -1.5221 H       
  48 H48            5.4662    -3.5768    -3.8336 H       
  49 H49            1.1973    -3.4853    -3.6108 H       
  50 H50            1.3409    -2.6558    -1.2980 H       
  51 H51            1.0996    -4.1730    -5.5127 H       
  52 H52            1.7831    -5.0347    -7.8967 H       
  53 H53            4.4472    -5.0858    -8.0195 H       
  54 H54            7.1233     7.1558     0.1286 H       
  55 H55            5.8971     9.2784    -0.0363 H       
  56 H56            2.2329     7.1334    -0.5691 H       
  57 H57            3.4490     5.0043    -0.4132 H       
  58 H58            1.2410     8.8708    -0.7022 H       
  59 H59            0.6771    11.4287    -0.7696 H       
  60 H60            2.9782    12.7758    -0.4345 H       
  61 H61            4.8955    11.0108    -0.1625 H       
@<TRIPOS>BOND
   1    1    2 ar
   2    1    6 ar
   3    1   40 1
   4    2    3 ar
   5    2   41 1
   6    3    4 ar
   7    3   42 1
   8    4    5 ar
   9    4    7 1
  10    5    6 ar
  11    5   10 1
  12    6   43 1
  13    7    8 1
  14    7   15 1
  15    8    9 2
  16    8   44 1
  17    9   10 1
  18    9   11 1
  19   10   13 2
  20   11   12 am
  21   11   14 2
  22   12   13 1
  23   12   27 am
  24   15   16 1
  25   15   45 1
  26   15   46 1
  27   16   17 ar
  28   16   21 ar
  29   17   18 ar
  30   17   47 1
  31   18   19 ar
  32   18   48 1
  33   19   20 ar
  34   19   22 1
  35   20   21 ar
  36   20   49 1
  37   21   50 1
  38   22   23 1
  39   22   26 1
  40   23   24 2
  41   23   51 1
  42   24   25 1
  43   24   52 1
  44   25   26 2
  45   25   53 1
  46   27   28 2
  47   27   29 1
  48   29   30 ar
  49   29   34 ar
  50   30   31 ar
  51   30   54 1
  52   31   32 ar
  53   31   55 1
  54   32   33 ar
  55   32   35 1
  56   33   34 ar
  57   33   56 1
  58   34   57 1
  59   35   36 1
  60   35   39 1
  61   36   37 2
  62   36   58 1
  63   37   38 1
  64   37   59 1
  65   38   39 2
  66   38   60 1
  67   39   61 1

#	End of record

