#	Name: ASD05688001
#	Creating user name:	WinNT
#	Creation time:	15. 06. 2019 21:01

#	Modifying user name:	WinNT
#	Modification time:	15. 06. 2019 21:01

#	Program:	/corina/corina34_cracker 3.40 0067  02.08.2006

@<TRIPOS>MOLECULE
ASD05688001
  49   49    0    0    0
SMALL
NO_CHARGES


@<TRIPOS>ATOM
   1 C1             0.0031     1.3791     0.1238 C.2     
   2 C2             0.0186    -0.0190     0.1178 C.2     
   3 C3            -1.1679    -0.7216     0.0953 C.2     
   4 C4            -1.1525    -2.1206     0.0893 C.2     
   5 C5            -2.3378    -2.8225     0.0668 C.2     
   6 C6            -2.3223    -4.2236     0.0608 C.2     
   7 C7            -3.4970    -4.9192     0.0385 C.2     
   8 C8            -3.4815    -6.3246     0.0325 C.2     
   9 C9            -4.6510    -7.0171     0.0103 C.2     
  10 O10            1.0495     1.9987     0.1436 O.2     
  11 C11           -4.6360    -8.4298    -0.1051 C.2     
  12 C12           -4.0190    -8.9645    -1.1456 C.2     
  13 C13           -3.9344   -10.4423    -1.3947 C.3     
  14 C14           -4.2620   -11.2118    -0.1135 C.3     
  15 C15           -5.5708   -10.6605     0.4651 C.3     
  16 C16           -5.3162    -9.2349     0.9637 C.3     
  17 C17           -4.4274    -9.2791     2.2083 C.3     
  18 C18           -6.6516    -8.5789     1.3205 C.3     
  19 C19           -3.3643    -8.0377    -2.1374 C.3     
  20 C20           -4.8102    -4.1801     0.0203 C.3     
  21 C21           -2.4811     0.0176     0.0771 C.3     
  22 H22           -0.9379     1.9088     0.1062 H       
  23 H23            0.9597    -0.5487     0.1308 H       
  24 H24           -0.2114    -2.6503     0.1023 H       
  25 H25           -3.2789    -2.2928     0.0537 H       
  26 H26           -1.3812    -4.7533     0.0738 H       
  27 H27           -2.5404    -6.8543     0.0455 H       
  28 H28           -5.5915    -6.4910     0.0805 H       
  29 H29           -4.6448   -10.7187    -2.1738 H       
  30 H30           -2.9260   -10.6966    -1.7212 H       
  31 H31           -4.3803   -12.2708    -0.3425 H       
  32 H32           -3.4573   -11.0784     0.6096 H       
  33 H33           -6.3376   -10.6497    -0.3095 H       
  34 H34           -5.8955   -11.2857     1.2968 H       
  35 H35           -4.2569    -8.2648     2.5692 H       
  36 H36           -4.9197    -9.8634     2.9858 H       
  37 H37           -3.4725    -9.7406     1.9567 H       
  38 H38           -7.3170    -8.6169     0.4580 H       
  39 H39           -7.1071    -9.1124     2.1547 H       
  40 H40           -6.4819    -7.5398     1.6029 H       
  41 H41           -2.3641    -7.7802    -1.7887 H       
  42 H42           -3.2951    -8.5324    -3.1062 H       
  43 H43           -3.9600    -7.1301    -2.2346 H       
  44 H44           -5.1100    -3.9973    -1.0116 H       
  45 H45           -5.5716    -4.7797     0.5191 H       
  46 H46           -4.6988    -3.2286     0.5402 H       
  47 H47           -2.7809     0.2004    -0.9548 H       
  48 H48           -3.2425    -0.5821     0.5759 H       
  49 H49           -2.3697     0.9691     0.5970 H       
@<TRIPOS>BOND
   1    1    2 1
   2    1   10 2
   3    1   22 1
   4    2    3 2
   5    2   23 1
   6    3    4 1
   7    3   21 1
   8    4    5 2
   9    4   24 1
  10    5    6 1
  11    5   25 1
  12    6    7 2
  13    6   26 1
  14    7    8 1
  15    7   20 1
  16    8    9 2
  17    8   27 1
  18    9   11 1
  19    9   28 1
  20   11   12 2
  21   11   16 1
  22   12   13 1
  23   12   19 1
  24   13   14 1
  25   13   29 1
  26   13   30 1
  27   14   15 1
  28   14   31 1
  29   14   32 1
  30   15   16 1
  31   15   33 1
  32   15   34 1
  33   16   17 1
  34   16   18 1
  35   17   35 1
  36   17   36 1
  37   17   37 1
  38   18   38 1
  39   18   39 1
  40   18   40 1
  41   19   41 1
  42   19   42 1
  43   19   43 1
  44   20   44 1
  45   20   45 1
  46   20   46 1
  47   21   47 1
  48   21   48 1
  49   21   49 1

#	End of record

