#	Name: ASD01916427
#	Creating user name:	WinNT
#	Creation time:	15. 06. 2019 20:07

#	Modifying user name:	WinNT
#	Modification time:	15. 06. 2019 20:07

#	Program:	/corina/corina34_cracker 3.40 0067  02.08.2006

@<TRIPOS>MOLECULE
ASD01916427
  35   37    0    0    0
SMALL
NO_CHARGES


@<TRIPOS>ATOM
   1 C1            -0.0162     1.3436     0.0094 C.2     
   2 N2             0.0021    -0.0041     0.0020 N.am    
   3 C3             1.1662    -0.7174    -0.0129 C.2     
   4 C4             2.3723    -0.1267    -0.0213 C.2     
   5 C5             2.4572     1.3345    -0.0142 C.ar    
   6 C6             3.6812     2.0053    -0.0218 C.ar    
   7 C7             3.6996     3.3724    -0.0142 C.ar    
   8 C8             2.5174     4.1015     0.0014 C.ar    
   9 C9             1.3040     3.4710     0.0091 C.ar    
  10 C10            1.2541     2.0772     0.0012 C.ar    
  11 O11           -1.0750     1.9453     0.0177 O.2     
  12 C12           -1.2712    -0.7286     0.0108 C.3     
  13 C13           -1.7287    -0.9731    -1.4286 C.3     
  14 C14           -3.0081    -1.7012    -1.4198 C.1     
  15 C15           -4.0284    -2.2818    -1.4127 C.1     
  16 C16           -5.2730    -2.9901    -1.4042 C.ar    
  17 C17           -5.8867    -3.3260    -2.6115 C.ar    
  18 C18           -7.0889    -4.0103    -2.5864 C.ar    
  19 C19           -7.6400    -4.3374    -1.3551 C.ar    
  20 C20           -6.9781    -3.9736    -0.1969 C.ar    
  21 N21           -5.8315    -3.3269    -0.2474 N.ar    
  22 H22            1.1153    -1.7961    -0.0179 H       
  23 H23            3.2716    -0.7246    -0.0327 H       
  24 H24            4.6066     1.4487    -0.0333 H       
  25 H25            4.6461     3.8925    -0.0201 H       
  26 H26            2.5571     5.1807     0.0078 H       
  27 H27            0.3912     4.0480     0.0216 H       
  28 H28           -1.1417    -1.6846     0.5182 H       
  29 H29           -2.0220    -0.1376     0.5353 H       
  30 H30           -1.8582    -0.0172    -1.9360 H       
  31 H31           -0.9780    -1.5642    -1.9531 H       
  32 H32           -5.4300    -3.0554    -3.5520 H       
  33 H33           -7.5877    -4.2836    -3.5045 H       
  34 H34           -8.5775    -4.8710    -1.3022 H       
  35 H35           -7.4050    -4.2267     0.7623 H       
@<TRIPOS>BOND
   1    1    2 am
   2    1   10 1
   3    1   11 2
   4    2    3 1
   5    2   12 1
   6    3    4 2
   7    3   22 1
   8    4    5 1
   9    4   23 1
  10    5    6 ar
  11    5   10 ar
  12    6    7 ar
  13    6   24 1
  14    7    8 ar
  15    7   25 1
  16    8    9 ar
  17    8   26 1
  18    9   10 ar
  19    9   27 1
  20   12   13 1
  21   12   28 1
  22   12   29 1
  23   13   14 1
  24   13   30 1
  25   13   31 1
  26   14   15 3
  27   15   16 1
  28   16   17 ar
  29   16   21 ar
  30   17   18 ar
  31   17   32 1
  32   18   19 ar
  33   18   33 1
  34   19   20 ar
  35   19   34 1
  36   20   21 ar
  37   20   35 1

#	End of record

