#	Name: ASD01208062
#	Creating user name:	WinNT
#	Creation time:	15. 06. 2019 19:09

#	Modifying user name:	WinNT
#	Modification time:	15. 06. 2019 19:09

#	Program:	/corina/corina34_cracker 3.40 0067  02.08.2006

@<TRIPOS>MOLECULE
ASD01208062
  55   58    0    0    0
SMALL
NO_CHARGES


@<TRIPOS>ATOM
   1 C1            -0.0648     1.4579    -0.0019 C.ar    
   2 C2             0.0533     0.0760    -0.0340 C.ar    
   3 C3            -1.0809    -0.7228     0.0113 C.ar    
   4 C4            -2.3361    -0.1427     0.0884 C.ar    
   5 C5            -2.4594     1.2473     0.1210 C.ar    
   6 C6            -1.3159     2.0464     0.0814 C.ar    
   7 C7            -3.7965     1.8708     0.2028 C.2     
   8 C8            -4.0514     3.2115     0.2409 C.2     
   9 N9            -4.9917     1.2016     0.2474 N.pl3   
  10 C10           -6.0058     2.1252     0.3200 C.2     
  11 C11           -5.4366     3.3799     0.3169 C.2     
  12 O12            1.0491     2.2352    -0.0465 O.3     
  13 C13            0.8514     3.6474    -0.1401 C.3     
  14 C14            2.0797     4.2928    -0.7848 C.3     
  15 O15            3.2108     4.1254     0.0723 O.3     
  16 C16            0.6465     4.2276     1.2607 C.3     
  17 O17           -0.9596    -2.0759    -0.0205 O.3     
  18 C18           -1.4241    -2.7306    -1.1117 C.ar    
  19 C19           -1.4229    -4.1271    -1.1407 C.ar    
  20 N20           -1.8848    -2.0452    -2.1493 N.ar    
  21 C21           -2.3378    -2.6827    -3.2134 C.ar    
  22 C22           -2.3315    -4.0768    -3.2452 C.ar    
  23 N23           -1.8731    -4.7640    -2.1995 N.ar    
  24 C24           -7.4446     1.8277     0.3851 C.2     
  25 C25            4.4171     4.6955    -0.4394 C.3     
  26 N26           -8.3994     2.7148     0.4538 N.2     
  27 C27           -9.6309     2.2616     0.5041 C.2     
  28 C28           -9.7647     0.9316     0.4788 C.2     
  29 S29           -8.1571     0.2165     0.3751 S.3     
  30 C30           -2.8386    -4.7917    -4.4350 C.2     
  31 O31           -2.8322    -6.1385    -4.4651 O.3     
  32 O32           -3.2611    -4.1650    -5.3858 O.2     
  33 C33           -3.3452    -6.7735    -5.6659 C.3     
  34 H34            1.0306    -0.3796    -0.0949 H       
  35 H35           -3.2182    -0.7648     0.1229 H       
  36 H36           -1.4068     3.1222     0.1064 H       
  37 H37           -3.3144     4.0007     0.2172 H       
  38 H38           -5.1028     0.2381     0.2301 H       
  39 H39           -5.9642     4.3211     0.3648 H       
  40 H40           -0.0286     3.8514    -0.7501 H       
  41 H41            2.2780     3.8171    -1.7453 H       
  42 H42            1.8936     5.3559    -0.9374 H       
  43 H43            1.5265     4.0236     1.8708 H       
  44 H44            0.4957     5.3048     1.1894 H       
  45 H45           -0.2286     3.7678     1.7200 H       
  46 H46           -1.0515    -4.6841    -0.2932 H       
  47 H47           -2.7133    -2.1247    -4.0584 H       
  48 H48            4.6640     4.2281    -1.3927 H       
  49 H49            4.2795     5.7669    -0.5848 H       
  50 H50            5.2280     4.5261     0.2690 H       
  51 H51          -10.4830     2.9225     0.5626 H       
  52 H52          -10.6977     0.3887     0.5124 H       
  53 H53           -4.3849    -6.4821    -5.8151 H       
  54 H54           -2.7528    -6.4585    -6.5249 H       
  55 H55           -3.2831    -7.8565    -5.5592 H       
@<TRIPOS>BOND
   1    1    2 ar
   2    1   12 1
   3    1    6 ar
   4    2    3 ar
   5    2   34 1
   6    3    4 ar
   7    3   17 1
   8    4    5 ar
   9    4   35 1
  10    5    6 ar
  11    5    7 1
  12    6   36 1
  13    7    8 2
  14    7    9 1
  15    8   11 1
  16    8   37 1
  17    9   10 1
  18    9   38 1
  19   10   11 2
  20   10   24 1
  21   11   39 1
  22   12   13 1
  23   13   14 1
  24   13   16 1
  25   13   40 1
  26   14   15 1
  27   14   41 1
  28   14   42 1
  29   15   25 1
  30   16   43 1
  31   16   44 1
  32   16   45 1
  33   17   18 1
  34   18   19 ar
  35   18   20 ar
  36   19   23 ar
  37   19   46 1
  38   20   21 ar
  39   21   22 ar
  40   21   47 1
  41   22   23 ar
  42   22   30 1
  43   24   26 2
  44   24   29 1
  45   25   48 1
  46   25   49 1
  47   25   50 1
  48   26   27 1
  49   27   28 2
  50   27   51 1
  51   28   29 1
  52   28   52 1
  53   30   31 1
  54   30   32 2
  55   31   33 1
  56   33   53 1
  57   33   54 1
  58   33   55 1

#	End of record

