#	Name: ASD02440081
#	Creating user name:	WinNT
#	Creation time:	15. 06. 2019 20:21

#	Modifying user name:	WinNT
#	Modification time:	15. 06. 2019 20:21

#	Program:	/corina/corina34_cracker 3.40 0067  02.08.2006

@<TRIPOS>MOLECULE
ASD02440081
  54   57    0    0    0
SMALL
NO_CHARGES


@<TRIPOS>ATOM
   1 N1             3.4532     5.1461     0.6648 N.am    
   2 C2             4.7520     5.2170     0.9773 C.2     
   3 S3             5.4160     3.5838     0.7973 S.3     
   4 C4             3.8753     2.8589     0.2961 C.2     
   5 C5             2.9308     3.9844     0.3084 C.2     
   6 O6             5.3611     6.2126     1.3194 O.2     
   7 C7             2.6140     6.3455     0.7227 C.3     
   8 C8             2.6368     7.0396    -0.6148 C.ar    
   9 O9             1.7572     3.8573     0.0136 O.2     
  10 C10            3.6272     1.5651    -0.0242 C.2     
  11 C11            4.7389     0.6097    -0.1378 C.ar    
  12 C12            4.4979    -0.7646    -0.0337 C.ar    
  13 C13            5.5441    -1.6568    -0.1410 C.ar    
  14 C14            6.8319    -1.1980    -0.3506 C.ar    
  15 C15            7.0825     0.1643    -0.4554 C.ar    
  16 C16            6.0414     1.0702    -0.3560 C.ar    
  17 C17            3.6252     8.6387    -2.0982 C.ar    
  18 C18            3.5988     7.9991    -0.8763 C.ar    
  19 C19            1.6992     6.7104    -1.5776 C.ar    
  20 C20            1.7144     7.3419    -2.8039 C.ar    
  21 C21            2.6788     8.3151    -3.0725 C.ar    
  22 C22            2.7006     8.9962    -4.3832 C.2     
  23 O23            3.5432     9.8398    -4.6154 O.2     
  24 O24            1.7861     8.6817    -5.3210 O.3     
  25 O25            8.3507     0.6075    -0.6615 O.3     
  26 C26            9.3760    -0.3830    -0.7603 C.3     
  27 C27           10.7252     0.3008    -0.9902 C.3     
  28 C28           11.8065    -0.7437    -1.0943 C.ar    
  29 C29           12.4700    -1.1674     0.0419 C.ar    
  30 C30           12.1309    -1.2823    -2.3254 C.ar    
  31 C31           13.1228    -2.2404    -2.4210 C.ar    
  32 C32           13.7905    -2.6596    -1.2855 C.ar    
  33 C33           13.4618    -2.1255    -0.0536 C.ar    
  34 H34            1.5904     6.0614     0.9671 H       
  35 H35            2.9966     7.0200     1.4887 H       
  36 H36            2.6129     1.2363    -0.1959 H       
  37 H37            3.4937    -1.1264     0.1307 H       
  38 H38            5.3572    -2.7174    -0.0605 H       
  39 H39            7.6466    -1.9023    -0.4329 H       
  40 H40            6.2352     2.1296    -0.4378 H       
  41 H41            4.3762     9.3879    -2.3009 H       
  42 H42            4.3305     8.2481    -0.1219 H       
  43 H43            0.9540     5.9572    -1.3686 H       
  44 H44            0.9822     7.0838    -3.5547 H       
  45 H45            1.8405     9.1541    -6.1631 H       
  46 H46            9.4139    -0.9601     0.1636 H       
  47 H47            9.1589    -1.0485    -1.5957 H       
  48 H48           10.6873     0.8779    -1.9141 H       
  49 H49           10.9422     0.9664    -0.1547 H       
  50 H50           12.2137    -0.7495     1.0043 H       
  51 H51           11.6092    -0.9547    -3.2125 H       
  52 H52           13.3758    -2.6616    -3.3827 H       
  53 H53           14.5652    -3.4084    -1.3601 H       
  54 H54           13.9804    -2.4562     0.8341 H       
@<TRIPOS>BOND
   1    1    2 am
   2    1    5 am
   3    1    7 1
   4    2    3 1
   5    2    6 2
   6    3    4 1
   7    4    5 1
   8    4   10 2
   9    5    9 2
  10    7    8 1
  11    7   34 1
  12    7   35 1
  13    8   19 ar
  14    8   18 ar
  15   10   11 1
  16   10   36 1
  17   11   12 ar
  18   11   16 ar
  19   12   13 ar
  20   12   37 1
  21   13   14 ar
  22   13   38 1
  23   14   15 ar
  24   14   39 1
  25   15   16 ar
  26   15   25 1
  27   16   40 1
  28   17   18 ar
  29   17   21 ar
  30   17   41 1
  31   18   42 1
  32   19   20 ar
  33   19   43 1
  34   20   21 ar
  35   20   44 1
  36   21   22 1
  37   22   23 2
  38   22   24 1
  39   24   45 1
  40   25   26 1
  41   26   27 1
  42   26   46 1
  43   26   47 1
  44   27   28 1
  45   27   48 1
  46   27   49 1
  47   28   30 ar
  48   28   29 ar
  49   29   33 ar
  50   29   50 1
  51   30   31 ar
  52   30   51 1
  53   31   32 ar
  54   31   52 1
  55   32   33 ar
  56   32   53 1
  57   33   54 1

#	End of record

