#	Name: ASD02039383
#	Creating user name:	WinNT
#	Creation time:	15. 06. 2019 20:18

#	Modifying user name:	WinNT
#	Modification time:	15. 06. 2019 20:18

#	Program:	/corina/corina34_cracker 3.40 0067  02.08.2006

@<TRIPOS>MOLECULE
ASD02039383
  54   57    0    0    0
SMALL
NO_CHARGES


@<TRIPOS>ATOM
   1 C1            -0.1569     1.5044    -0.2282 C.ar    
   2 C2            -0.2318     0.1194    -0.1931 C.ar    
   3 C3            -1.4679    -0.4952    -0.2730 C.ar    
   4 C4            -2.5438     1.5427    -0.4084 C.ar    
   5 C5            -1.3324     2.2272    -0.3377 C.ar    
   6 C6            -3.8121     2.3025    -0.5263 C.ar    
   7 C7             1.1739     2.2064    -0.1428 C.3     
   8 N8             1.7776     2.2723    -1.4760 N.am    
   9 C9             1.3730     3.3241    -2.4121 C.3     
  10 C10            2.7053     1.3654    -1.8413 C.2     
  11 C11            3.0480     0.2561    -0.9345 C.2     
  12 C12            4.0091    -0.6892    -1.1441 C.2     
  13 N13            2.4692    -0.0082     0.2647 N.2     
  14 C14            3.0302    -1.0640     0.7794 C.2     
  15 N15            3.9911    -1.5127    -0.0697 N.pl3   
  16 O16            3.2594     1.4628    -2.9196 O.2     
  17 C17            4.8527    -2.6790     0.1394 C.3     
  18 C18           -5.0284     1.6255    -0.5976 C.ar    
  19 N19           -2.5713     0.2163    -0.3822 N.ar    
  20 C20           -3.7916     3.6958    -0.5604 C.ar    
  21 C21           -4.9738     4.3984    -0.6698 C.ar    
  22 C22           -6.1802     3.7212    -0.7457 C.ar    
  23 C23           -6.2057     2.3363    -0.7068 C.ar    
  24 C24            2.5673     4.2352    -2.7027 C.3     
  25 C25            0.8882     2.6874    -3.7161 C.3     
  26 F26           -7.3356     4.4133    -0.8522 F       
  27 C27            2.1448     5.3337    -3.6804 C.3     
  28 C28            0.4656     3.7858    -4.6938 C.3     
  29 C29            1.6599     4.6970    -4.9844 C.3     
  30 H30            0.6668    -0.4731    -0.1045 H       
  31 H31           -1.5297    -1.5731    -0.2459 H       
  32 H32           -1.3114     3.3068    -0.3590 H       
  33 H33            1.0280     3.2163     0.2403 H       
  34 H34            1.8331     1.6551     0.5277 H       
  35 H35            0.5666     3.9112    -1.9726 H       
  36 H36            4.6594    -0.7662    -2.0029 H       
  37 H37            2.7752    -1.5096     1.7296 H       
  38 H38            4.3730    -3.5645    -0.2777 H       
  39 H39            5.8100    -2.5169    -0.3560 H       
  40 H40            5.0160    -2.8232     1.2074 H       
  41 H41           -5.0491     0.5461    -0.5678 H       
  42 H42           -2.8518     4.2245    -0.5010 H       
  43 H43           -4.9589     5.4780    -0.6959 H       
  44 H44           -7.1482     1.8124    -0.7663 H       
  45 H45            2.9127     4.6889    -1.7737 H       
  46 H46            3.3737     3.6482    -3.1422 H       
  47 H47            1.6946     2.1003    -4.1556 H       
  48 H48            0.0373     2.0383    -3.5091 H       
  49 H49            1.3384     5.9207    -3.2409 H       
  50 H50            2.9956     5.9828    -3.8874 H       
  51 H51            0.1202     3.3322    -5.6227 H       
  52 H52           -0.3408     4.3729    -4.2543 H       
  53 H53            1.3589     5.4795    -5.6808 H       
  54 H54            2.4663     4.1099    -5.4239 H       
@<TRIPOS>BOND
   1    1    2 ar
   2    1    7 1
   3    1    5 ar
   4    2    3 ar
   5    2   30 1
   6    3   19 ar
   7    3   31 1
   8    4    5 ar
   9    4    6 1
  10    4   19 ar
  11    5   32 1
  12    6   18 ar
  13    6   20 ar
  14    7    8 1
  15    7   33 1
  16    7   34 1
  17    8    9 1
  18    8   10 am
  19    9   24 1
  20    9   25 1
  21    9   35 1
  22   10   11 1
  23   10   16 2
  24   11   12 2
  25   11   13 1
  26   12   15 1
  27   12   36 1
  28   13   14 2
  29   14   15 1
  30   14   37 1
  31   15   17 1
  32   17   38 1
  33   17   39 1
  34   17   40 1
  35   18   23 ar
  36   18   41 1
  37   20   21 ar
  38   20   42 1
  39   21   22 ar
  40   21   43 1
  41   22   23 ar
  42   22   26 1
  43   23   44 1
  44   24   27 1
  45   24   45 1
  46   24   46 1
  47   25   28 1
  48   25   47 1
  49   25   48 1
  50   27   29 1
  51   27   49 1
  52   27   50 1
  53   28   29 1
  54   28   51 1
  55   28   52 1
  56   29   53 1
  57   29   54 1

#	End of record

