#	Name: ASD01883516
#	Creating user name:	WinNT
#	Creation time:	15. 06. 2019 19:46

#	Modifying user name:	WinNT
#	Modification time:	15. 06. 2019 19:46

#	Program:	/corina/corina34_cracker 3.40 0067  02.08.2006

@<TRIPOS>MOLECULE
ASD01883516
  48   50    0    0    0
SMALL
NO_CHARGES


@<TRIPOS>ATOM
   1 N1            -0.0162     1.3417     0.0094 N.am    
   2 C2             0.0021    -0.0041     0.0020 C.2     
   3 C3            -1.2155    -0.7272     0.0098 C.2     
   4 C4            -2.4260    -0.0107     0.0252 C.2     
   5 C5            -2.3784     1.3976     0.0323 C.2     
   6 C6            -1.1852     2.0328     0.0299 C.2     
   7 O7             1.0658    -0.6000    -0.0117 O.2     
   8 C8            -1.2145    -2.1592     0.0016 C.1     
   9 N9            -1.2136    -3.2951    -0.0049 N.1     
  10 C10            1.2513     2.0763     0.0013 C.3     
  11 C11            1.6788     2.3398    -1.4440 C.3     
  12 C12            3.0025     3.1070    -1.4525 C.3     
  13 C13            3.4930     3.2616    -2.8935 C.3     
  14 C14           -3.7213    -0.7206     0.0332 C.2     
  15 C15            2.7941     4.4905    -0.8334 C.3     
  16 C16           -4.3046    -1.3872     1.1335 C.2     
  17 N17           -5.4463    -1.8875     0.7460 N.2     
  18 N18           -5.6460    -1.5696    -0.6022 N.pl3   
  19 C19           -4.5897    -0.8510    -1.0308 C.2     
  20 C20           -6.7592    -1.9304    -1.3733 C.ar    
  21 C21           -4.3935    -0.2924    -2.4166 C.3     
  22 C22           -7.3803    -3.1551    -1.1680 C.ar    
  23 C23           -8.4772    -3.5078    -1.9295 C.ar    
  24 C24           -8.9570    -2.6427    -2.8957 C.ar    
  25 C25           -8.3406    -1.4222    -3.1025 C.ar    
  26 C26           -7.2468    -1.0614    -2.3403 C.ar    
  27 H27           -3.2947     1.9692     0.0437 H       
  28 H28           -1.1611     3.1125     0.0354 H       
  29 H29            1.1243     3.0257     0.5214 H       
  30 H30            2.0168     1.4857     0.5046 H       
  31 H31            1.8057     1.3903    -1.9642 H       
  32 H32            0.9133     2.9303    -1.9474 H       
  33 H33            3.7445     2.5577    -0.8731 H       
  34 H34            2.7510     3.8109    -3.4729 H       
  35 H35            4.4361     3.8082    -2.8995 H       
  36 H36            3.6415     2.2760    -3.3345 H       
  37 H37            2.0520     5.0398    -1.4129 H       
  38 H38            2.4446     4.3803     0.1931 H       
  39 H39            3.7371     5.0371    -0.8395 H       
  40 H40           -3.8798    -1.4691     2.1230 H       
  41 H41           -4.8216     0.7086    -2.4688 H       
  42 H42           -3.3280    -0.2440    -2.6413 H       
  43 H43           -4.8889    -0.9378    -3.1420 H       
  44 H44           -7.0058    -3.8314    -0.4138 H       
  45 H45           -8.9605    -4.4605    -1.7705 H       
  46 H46           -9.8146    -2.9208    -3.4902 H       
  47 H47           -8.7174    -0.7488    -3.8581 H       
  48 H48           -6.7658    -0.1081    -2.5023 H       
@<TRIPOS>BOND
   1    1    2 am
   2    1   10 1
   3    1    6 1
   4    2    3 1
   5    2    7 2
   6    3    4 2
   7    3    8 1
   8    4    5 1
   9    4   14 1
  10    5    6 2
  11    5   27 1
  12    6   28 1
  13    8    9 3
  14   10   11 1
  15   10   29 1
  16   10   30 1
  17   11   12 1
  18   11   31 1
  19   11   32 1
  20   12   13 1
  21   12   15 1
  22   12   33 1
  23   13   34 1
  24   13   35 1
  25   13   36 1
  26   14   16 1
  27   14   19 2
  28   15   37 1
  29   15   38 1
  30   15   39 1
  31   16   17 2
  32   16   40 1
  33   17   18 1
  34   18   19 1
  35   18   20 1
  36   19   21 1
  37   20   22 ar
  38   20   26 ar
  39   21   41 1
  40   21   42 1
  41   21   43 1
  42   22   23 ar
  43   22   44 1
  44   23   24 ar
  45   23   45 1
  46   24   25 ar
  47   24   46 1
  48   25   26 ar
  49   25   47 1
  50   26   48 1

#	End of record

