#	Name: ASD01883041
#	Creating user name:	WinNT
#	Creation time:	15. 06. 2019 19:45

#	Modifying user name:	WinNT
#	Modification time:	15. 06. 2019 19:45

#	Program:	/corina/corina34_cracker 3.40 0067  02.08.2006

@<TRIPOS>MOLECULE
ASD01883041
  48   50    0    0    0
SMALL
NO_CHARGES


@<TRIPOS>ATOM
   1 N1            -0.0162     1.3417     0.0094 N.am    
   2 C2             0.0021    -0.0041     0.0020 C.2     
   3 C3            -1.2161    -0.7274     0.0102 C.2     
   4 C4            -2.4261    -0.0112     0.0261 C.2     
   5 C5            -2.3786     1.3969     0.0332 C.2     
   6 C6            -1.1851     2.0325     0.0299 C.2     
   7 O7             1.0657    -0.6000    -0.0122 O.2     
   8 C8            -1.2152    -2.1594     0.0021 C.1     
   9 N9            -1.2144    -3.2954    -0.0044 N.1     
  10 C10            1.2513     2.0764     0.0013 C.3     
  11 C11            1.6787     2.3399    -1.4440 C.3     
  12 C12           -5.3071    -2.1691    -1.0466 C.ar    
  13 C13           -3.7219    -0.7213     0.0347 C.ar    
  14 C14           -4.5705    -0.6159     1.1393 C.ar    
  15 C15           -6.1521    -2.0578     0.0526 C.ar    
  16 O16           -7.3436    -2.7104     0.0603 O.3     
  17 C17           -7.3769    -3.9701     0.5645 C.ar    
  18 C18           -8.5666    -4.6933     0.6013 C.ar    
  19 C19           -8.5588    -5.9715     1.1212 C.ar    
  20 N20           -7.4438    -6.5083     1.5793 N.ar    
  21 C21           -6.2973    -5.8549     1.5615 C.ar    
  22 C22           -6.2209    -4.5748     1.0530 C.ar    
  23 C23           -4.0963    -1.5076    -1.0575 C.ar    
  24 C24            3.0024     3.1072    -1.4525 C.3     
  25 C25           -5.7799    -1.2799     1.1439 C.ar    
  26 F26           -6.6010    -1.1788     2.2120 F       
  27 C27            3.4298     3.3707    -2.8978 C.3     
  28 F28           -5.6697    -2.9301    -2.1023 F       
  29 C29           -9.8397    -6.7640     1.1670 C.3     
  30 H30           -3.2950     1.9683     0.0453 H       
  31 H31           -1.1611     3.1122     0.0358 H       
  32 H32            1.1242     3.0258     0.5214 H       
  33 H33            2.0168     1.4859     0.5046 H       
  34 H34            1.8057     1.3905    -1.9642 H       
  35 H35            0.9132     2.9304    -1.9474 H       
  36 H36           -4.2801    -0.0156     1.9888 H       
  37 H37           -9.4827    -4.2597     0.2283 H       
  38 H38           -5.4068    -6.3298     1.9461 H       
  39 H39           -5.2795    -4.0456     1.0414 H       
  40 H40           -3.4386    -1.5980    -1.9094 H       
  41 H41            2.8753     4.0566    -0.9323 H       
  42 H42            3.7679     2.5167    -0.9491 H       
  43 H43            3.5569     2.4213    -3.4179 H       
  44 H44            2.6643     3.9612    -3.4011 H       
  45 H45            4.3728     3.9173    -2.9038 H       
  46 H46           -9.9476    -7.3338     0.2441 H       
  47 H47           -9.8137    -7.4479     2.0153 H       
  48 H48          -10.6843    -6.0835     1.2747 H       
@<TRIPOS>BOND
   1    1    2 am
   2    1   10 1
   3    1    6 1
   4    2    3 1
   5    2    7 2
   6    3    4 2
   7    3    8 1
   8    4    5 1
   9    4   13 1
  10    5    6 2
  11    5   30 1
  12    6   31 1
  13    8    9 3
  14   10   11 1
  15   10   32 1
  16   10   33 1
  17   11   24 1
  18   11   34 1
  19   11   35 1
  20   12   23 ar
  21   12   28 1
  22   12   15 ar
  23   13   14 ar
  24   13   23 ar
  25   14   25 ar
  26   14   36 1
  27   15   16 1
  28   15   25 ar
  29   16   17 1
  30   17   18 ar
  31   17   22 ar
  32   18   19 ar
  33   18   37 1
  34   19   20 ar
  35   19   29 1
  36   20   21 ar
  37   21   22 ar
  38   21   38 1
  39   22   39 1
  40   23   40 1
  41   24   27 1
  42   24   41 1
  43   24   42 1
  44   25   26 1
  45   27   43 1
  46   27   44 1
  47   27   45 1
  48   29   46 1
  49   29   47 1
  50   29   48 1

#	End of record

