#	Name: ASD08150572
#	Creating user name:	WinNT
#	Creation time:	15. 06. 2019 21:16

#	Modifying user name:	WinNT
#	Modification time:	15. 06. 2019 21:16

#	Program:	/corina/corina34_cracker 3.40 0067  02.08.2006

@<TRIPOS>MOLECULE
ASD08150572
  44   48    0    0    0
SMALL
NO_CHARGES


@<TRIPOS>ATOM
   1 N1             0.8872     2.9213    -1.4971 N.am    
   2 C2             1.3163     2.2999    -2.6128 C.2     
   3 C3             2.5260     1.5761    -2.6183 C.2     
   4 C4             3.2790     1.4957    -1.4918 C.2     
   5 C5             2.8309     2.1486    -0.3164 C.ar    
   6 C6             3.5741     2.0970     0.8784 C.ar    
   7 N7             3.1586     2.7006     1.9612 N.ar    
   8 C8             2.0127     3.3975     1.9995 C.ar    
   9 C9             1.2008     3.5029     0.8434 C.ar    
  10 C10            1.6219     2.8607    -0.3446 C.ar    
  11 C11           -0.3673     4.8437     2.0788 C.ar    
  12 C12            0.4413     4.7346     3.2189 C.ar    
  13 C13            1.6041     4.0301     3.1851 C.ar    
  14 O14            0.6492     2.3640    -3.6313 O.2     
  15 C15           -0.3154     3.6385    -1.5188 C.ar    
  16 C16           -0.3097     4.9971    -1.8065 C.ar    
  17 C17           -1.4968     5.7023    -1.8279 C.ar    
  18 C18           -2.6924     5.0557    -1.5627 C.ar    
  19 C19           -2.7003     3.7009    -1.2756 C.ar    
  20 C20           -1.5160     2.9909    -1.2584 C.ar    
  21 C21            0.0082     4.2312     0.8941 C.ar    
  22 C22           -1.6309     5.6177     2.1414 C.ar    
  23 C23           -2.7543     5.1924     1.4382 C.ar    
  24 F24           -3.8526     5.7476    -1.5837 F       
  25 N25           -3.8796     5.8768     1.4907 N.ar    
  26 C26           -3.9883     6.9855     2.2069 C.ar    
  27 C27           -2.9075     7.4728     2.9372 C.ar    
  28 C28           -1.7119     6.7829     2.9131 C.ar    
  29 N29           -5.1962     7.6716     2.2295 N.pl3   
  30 H30            2.8545     1.0838    -3.5217 H       
  31 H31            4.2061     0.9418    -1.4911 H       
  32 H32            4.5041     1.5485     0.9009 H       
  33 H33            0.1368     5.2166     4.1361 H       
  34 H34            2.2150     3.9567     4.0727 H       
  35 H35            0.6225     5.5018    -2.0130 H       
  36 H36           -1.4928     6.7590    -2.0512 H       
  37 H37           -3.6337     3.1986    -1.0687 H       
  38 H38           -1.5226     1.9343    -1.0348 H       
  39 H39           -0.6153     4.3159     0.0164 H       
  40 H40           -2.7034     4.2925     0.8432 H       
  41 H41           -3.0045     8.3776     3.5187 H       
  42 H42           -0.8575     7.1377     3.4703 H       
  43 H43           -5.9530     7.3379     1.7228 H       
  44 H44           -5.2826     8.4842     2.7520 H       
@<TRIPOS>BOND
   1    1    2 am
   2    1   10 1
   3    1   15 1
   4    2    3 1
   5    2   14 2
   6    3    4 2
   7    3   30 1
   8    4    5 1
   9    4   31 1
  10    5    6 ar
  11    5   10 ar
  12    6    7 ar
  13    6   32 1
  14    7    8 ar
  15    8    9 ar
  16    8   13 ar
  17    9   10 ar
  18    9   21 ar
  19   11   12 ar
  20   11   22 1
  21   11   21 ar
  22   12   13 ar
  23   12   33 1
  24   13   34 1
  25   15   16 ar
  26   15   20 ar
  27   16   17 ar
  28   16   35 1
  29   17   18 ar
  30   17   36 1
  31   18   19 ar
  32   18   24 1
  33   19   20 ar
  34   19   37 1
  35   20   38 1
  36   21   39 1
  37   22   23 ar
  38   22   28 ar
  39   23   25 ar
  40   23   40 1
  41   25   26 ar
  42   26   27 ar
  43   26   29 1
  44   27   28 ar
  45   27   41 1
  46   28   42 1
  47   29   43 1
  48   29   44 1

#	End of record

