#	Name: ASD01913219
#	Creating user name:	WinNT
#	Creation time:	15. 06. 2019 20:01

#	Modifying user name:	WinNT
#	Modification time:	15. 06. 2019 20:01

#	Program:	/corina/corina34_cracker 3.40 0067  02.08.2006

@<TRIPOS>MOLECULE
ASD01913219
  51   54    0    0    0
SMALL
NO_CHARGES


@<TRIPOS>ATOM
   1 N1            -2.0587     1.3847     0.8033 N.am    
   2 C2            -2.9909     2.1257     1.6474 C.3     
   3 C3            -4.4289     1.8574     1.1897 C.3     
   4 C4            -4.8802     0.5330     1.7638 C.ar    
   5 C5            -4.3523    -0.6430     1.2908 C.ar    
   6 C6            -3.3139    -0.6254     0.1913 C.3     
   7 C7            -2.0034    -0.0733     0.7630 C.3     
   8 C8            -4.7669    -1.8539     1.8165 C.ar    
   9 C9            -5.7164    -1.8765     2.8217 C.ar    
  10 C10           -6.2477    -0.6927     3.2979 C.ar    
  11 C11           -5.8301     0.5152     2.7698 C.ar    
  12 C12           -1.2117     2.0805     0.0190 C.2     
  13 O13           -0.3532     1.4982    -0.6150 O.2     
  14 C14           -1.3265     3.5497    -0.0702 C.ar    
  15 C15           -2.5742     4.1411    -0.2631 C.ar    
  16 C16           -2.6762     5.5279    -0.3466 C.ar    
  17 C17           -1.5213     6.3197    -0.2356 C.ar    
  18 C18           -0.2849     5.7201    -0.0438 C.ar    
  19 C19           -0.1845     4.3486     0.0446 C.ar    
  20 C20           -3.9536     6.1440    -0.5451 C.1     
  21 C21           -5.0008     6.6491    -0.7079 C.1     
  22 C22           -6.2782     7.2651    -0.9065 C.ar    
  23 C23           -6.3719     8.6572    -0.9891 C.ar    
  24 C24           -7.6127     9.2361    -1.1814 C.ar    
  25 C25           -8.7226     8.4078    -1.2855 C.ar    
  26 C26           -8.5591     7.0378    -1.1949 C.ar    
  27 N27           -7.3661     6.5085    -1.0164 N.ar    
  28 O28           -1.6146     7.6702    -0.3166 O.3     
  29 C29           -0.3999     8.4129    -0.1953 C.3     
  30 H30           -2.8745     1.8065     2.6830 H       
  31 H31           -2.7793     3.1923     1.5716 H       
  32 H32           -5.0815     2.6531     1.5488 H       
  33 H33           -4.4644     1.8153     0.1011 H       
  34 H34           -3.1541    -1.6387    -0.1771 H       
  35 H35           -3.6550     0.0131    -0.6237 H       
  36 H36           -1.1719    -0.3873     0.1321 H       
  37 H37           -1.8574    -0.4585     1.7722 H       
  38 H38           -4.3507    -2.7779     1.4431 H       
  39 H39           -6.0432    -2.8195     3.2345 H       
  40 H40           -6.9891    -0.7111     4.0831 H       
  41 H41           -6.2441     1.4412     3.1408 H       
  42 H42           -3.4582     3.5264    -0.3480 H       
  43 H43            0.6017     6.3310     0.0409 H       
  44 H44            0.7805     3.8887     0.1988 H       
  45 H45           -5.4880     9.2718    -0.9035 H       
  46 H46           -7.7166    10.3090    -1.2489 H       
  47 H47           -9.7052     8.8302    -1.4356 H       
  48 H48           -9.4213     6.3923    -1.2752 H       
  49 H49           -0.6156     9.4782    -0.2777 H       
  50 H50            0.0559     8.2084     0.7735 H       
  51 H51            0.2866     8.1187    -0.9892 H       
@<TRIPOS>BOND
   1    1    2 1
   2    1    7 1
   3    1   12 am
   4    2    3 1
   5    2   30 1
   6    2   31 1
   7    3    4 1
   8    3   32 1
   9    3   33 1
  10    4    5 ar
  11    4   11 ar
  12    5    6 1
  13    5    8 ar
  14    6    7 1
  15    6   34 1
  16    6   35 1
  17    7   36 1
  18    7   37 1
  19    8    9 ar
  20    8   38 1
  21    9   10 ar
  22    9   39 1
  23   10   11 ar
  24   10   40 1
  25   11   41 1
  26   12   13 2
  27   12   14 1
  28   14   15 ar
  29   14   19 ar
  30   15   16 ar
  31   15   42 1
  32   16   17 ar
  33   16   20 1
  34   17   18 ar
  35   17   28 1
  36   18   19 ar
  37   18   43 1
  38   19   44 1
  39   20   21 3
  40   21   22 1
  41   22   23 ar
  42   22   27 ar
  43   23   24 ar
  44   23   45 1
  45   24   25 ar
  46   24   46 1
  47   25   26 ar
  48   25   47 1
  49   26   27 ar
  50   26   48 1
  51   28   29 1
  52   29   49 1
  53   29   50 1
  54   29   51 1

#	End of record

