#	Name: ASD01941085
#	Creating user name:	WinNT
#	Creation time:	15. 06. 2019 20:13

#	Modifying user name:	WinNT
#	Modification time:	15. 06. 2019 20:13

#	Program:	/corina/corina34_cracker 3.40 0067  02.08.2006

@<TRIPOS>MOLECULE
ASD01941085
  40   42    0    0    0
SMALL
NO_CHARGES


@<TRIPOS>ATOM
   1 C1             0.1232     1.1565     0.1244 C.ar    
   2 C2            -0.3398     0.7439     1.3681 C.ar    
   3 C3            -1.6678     0.3883     1.5292 C.ar    
   4 C4            -2.5438     0.4410     0.4531 C.ar    
   5 C5            -2.1006     0.8476    -0.7853 C.ar    
   6 C6            -0.7636     1.2156    -0.9627 C.ar    
   7 F7            -2.1139    -0.0127     2.7397 F       
   8 F8             0.5063     0.6894     2.4199 F       
   9 C9            -0.2850     1.6517    -2.2859 C.2     
  10 O10            0.9046     1.8155    -2.4786 O.2     
  11 N11           -1.1654     1.8692    -3.2829 N.am    
  12 N12            1.4567     1.5144    -0.0413 N.pl3   
  13 C13            2.3789     0.5762    -0.5168 C.ar    
  14 C14            3.7347     0.8851    -0.5475 C.ar    
  15 C15            4.6430    -0.0452    -1.0184 C.ar    
  16 C16            4.2036    -1.2808    -1.4587 C.ar    
  17 C17            2.8555    -1.5898    -1.4294 C.ar    
  18 C18            1.9434    -0.6677    -0.9540 C.ar    
  19 F19            4.1635     2.0923    -0.1184 F       
  20 I20            5.5828    -2.6872    -2.1720 I       
  21 C21           -1.1020     2.3905    -4.6567 C.3     
  22 C22           -2.5633     2.8329    -4.4984 C.3     
  23 C23           -2.6112     1.6836    -3.4782 C.3     
  24 O24           -2.7233     4.1341    -3.9297 O.3     
  25 C25           -3.4137     2.6054    -5.7216 C.2     
  26 O26           -3.1100     1.7440    -6.5196 O.2     
  27 N27           -4.5116     3.3591    -5.9287 N.am    
  28 H28           -3.5782     0.1613     0.5883 H       
  29 H29           -2.7866     0.8866    -1.6185 H       
  30 H30            1.7474     2.4147     0.1729 H       
  31 H31            5.6961     0.1932    -1.0429 H       
  32 H32            2.5161    -2.5553    -1.7742 H       
  33 H33            0.8913    -0.9104    -0.9315 H       
  34 H34           -0.4070     3.2220    -4.7738 H       
  35 H35           -0.9625     1.6146    -5.4094 H       
  36 H36           -2.8731     0.7220    -3.9196 H       
  37 H37           -3.2003     1.9152    -2.5908 H       
  38 H38           -3.6449     4.4097    -3.8314 H       
  39 H39           -4.7545     4.0480    -5.2905 H       
  40 H40           -5.0590     3.2126    -6.7160 H       
@<TRIPOS>BOND
   1    1    2 ar
   2    1   12 1
   3    1    6 ar
   4    2    3 ar
   5    2    8 1
   6    3    4 ar
   7    3    7 1
   8    4    5 ar
   9    4   28 1
  10    5    6 ar
  11    5   29 1
  12    6    9 1
  13    9   10 2
  14    9   11 am
  15   11   21 1
  16   11   23 1
  17   12   13 1
  18   12   30 1
  19   13   14 ar
  20   13   18 ar
  21   14   15 ar
  22   14   19 1
  23   15   16 ar
  24   15   31 1
  25   16   17 ar
  26   16   20 1
  27   17   18 ar
  28   17   32 1
  29   18   33 1
  30   21   22 1
  31   21   34 1
  32   21   35 1
  33   22   23 1
  34   22   24 1
  35   22   25 1
  36   23   36 1
  37   23   37 1
  38   24   38 1
  39   25   26 2
  40   25   27 am
  41   27   39 1
  42   27   40 1

#	End of record

