#	Name: ASD07930635
#	Creating user name:	WinNT
#	Creation time:	15. 06. 2019 21:12

#	Modifying user name:	WinNT
#	Modification time:	15. 06. 2019 21:12

#	Program:	/corina/corina34_cracker 3.40 0067  02.08.2006

@<TRIPOS>MOLECULE
ASD07930635
  45   47    0    0    0
SMALL
NO_CHARGES


@<TRIPOS>ATOM
   1 C1            -0.0342     1.4581     0.0423 C.3     
   2 N2             0.7954    -0.4134    -2.1303 N.2     
   3 N3            -0.8903    -1.7835    -1.2685 N.pl3   
   4 C4            -0.9149    -2.8271    -0.2383 C.3     
   5 C5            -1.2300    -2.1885     1.1215 C.3     
   6 S6             0.0062    -0.8913     1.4434 S.o2    
   7 N7            -0.0140    -0.0067     0.0314 N.am    
   8 C8            -0.0112    -0.7260    -1.1552 C.2     
   9 C9             0.4501    -3.5154    -0.1755 C.3     
  10 C10           -1.9764    -3.8423    -0.5755 C.ar    
  11 C11           -2.8069    -3.6377    -1.6601 C.ar    
  12 C12           -3.7854    -4.5729    -1.9715 C.ar    
  13 C13           -3.9275    -5.7127    -1.1915 C.ar    
  14 C14           -3.0942    -5.9144    -0.1061 C.ar    
  15 C15           -2.1144    -4.9815     0.1987 C.ar    
  16 O16           -0.4575     0.0117     2.4377 O.2     
  17 O17            1.3141    -1.4440     1.5003 O.2     
  18 N18           -4.6275    -4.3663    -3.0698 N.am    
  19 C19           -5.0478    -5.4159    -3.8036 C.2     
  20 O20           -4.6193    -6.5297    -3.5723 O.2     
  21 C21           -6.0301    -5.2124    -4.8900 C.ar    
  22 N22           -6.4999    -3.9923    -5.1439 N.ar    
  23 F23           -1.3010    -5.1793     1.2590 F       
  24 C24           -7.3739    -3.8122    -6.1106 C.ar    
  25 C25           -7.8096    -4.8992    -6.8703 C.ar    
  26 N26           -7.3429    -6.1147    -6.6190 N.ar    
  27 C27           -6.4610    -6.2970    -5.6533 C.ar    
  28 O28           -8.7103    -4.7122    -7.8650 O.3     
  29 F29           -3.2311    -7.0230     0.6538 F       
  30 H30            0.9884     1.8356     0.0392 H       
  31 H31           -0.5581     1.8208    -0.8420 H       
  32 H32           -0.5478     1.8077     0.9378 H       
  33 H33            1.4071     0.3330    -2.0332 H       
  34 H34           -1.4883    -1.8387    -2.0303 H       
  35 H35           -2.2269    -1.7484     1.0986 H       
  36 H36           -1.1799    -2.9460     1.9036 H       
  37 H37            1.2166    -2.7805     0.0704 H       
  38 H38            0.4311    -4.2908     0.5903 H       
  39 H39            0.6749    -3.9652    -1.1426 H       
  40 H40           -2.6955    -2.7505    -2.2657 H       
  41 H41           -4.6880    -6.4409    -1.4319 H       
  42 H42           -4.9088    -3.4678    -3.3031 H       
  43 H43           -7.7547    -2.8228    -6.3164 H       
  44 H44           -6.0808    -7.2870    -5.4484 H       
  45 H45           -8.3123    -4.5226    -8.7256 H       
@<TRIPOS>BOND
   1    1    7 1
   2    1   30 1
   3    1   31 1
   4    1   32 1
   5    2    8 2
   6    2   33 1
   7    3    4 1
   8    3    8 1
   9    3   34 1
  10    4    5 1
  11    4    9 1
  12    4   10 1
  13    5    6 1
  14    5   35 1
  15    5   36 1
  16    6    7 am
  17    6   16 2
  18    6   17 2
  19    7    8 1
  20    9   37 1
  21    9   38 1
  22    9   39 1
  23   10   11 ar
  24   10   15 ar
  25   11   12 ar
  26   11   40 1
  27   12   13 ar
  28   12   18 1
  29   13   14 ar
  30   13   41 1
  31   14   15 ar
  32   14   29 1
  33   15   23 1
  34   18   19 am
  35   18   42 1
  36   19   20 2
  37   19   21 1
  38   21   22 ar
  39   21   27 ar
  40   22   24 ar
  41   24   25 ar
  42   24   43 1
  43   25   26 ar
  44   25   28 1
  45   26   27 ar
  46   27   44 1
  47   28   45 1

#	End of record

