#	Name: ASD01814517
#	Creating user name:	WinNT
#	Creation time:	15. 06. 2019 19:32

#	Modifying user name:	WinNT
#	Modification time:	15. 06. 2019 19:32

#	Program:	/corina/corina34_cracker 3.40 0067  02.08.2006

@<TRIPOS>MOLECULE
ASD01814517
  55   57    0    0    0
SMALL
NO_CHARGES


@<TRIPOS>ATOM
   1 C1            -0.9019     1.4153    -0.4588 C.3     
   2 C2            -0.6582    -0.0926    -0.3642 C.3     
   3 C3            -1.8654    -0.8381    -0.9418 C.3     
   4 N4            -3.0790    -0.3786    -0.2528 N.am    
   5 C5            -3.3617     1.0625    -0.2055 C.3     
   6 C6            -2.1377     1.7867     0.3639 C.3     
   7 N7             0.2680     2.1338     0.0639 N.3     
   8 C8             0.3617     3.4799    -0.5167 C.3     
   9 C9             1.0903     3.4068    -1.8623 C.3     
  10 N10            1.2904     4.7722    -2.3665 N.am    
  11 C11            1.9501     5.7565    -1.4978 C.3     
  12 C12            1.2118     5.8033    -0.1563 C.3     
  13 C13            1.1419     4.3924     0.4324 C.3     
  14 C14            0.8772     5.1152    -3.6026 C.2     
  15 C15            1.0094     6.5133    -4.0649 C.ar    
  16 O16            0.3957     4.2751    -4.3374 O.2     
  17 C17            2.2302     7.1790    -3.9440 C.ar    
  18 C18            2.3469     8.4835    -4.3773 C.ar    
  19 C19            1.2571     9.1320    -4.9308 C.ar    
  20 C20            0.0440     8.4780    -5.0531 C.ar    
  21 C21           -0.0844     7.1713    -4.6294 C.ar    
  22 C22           -3.9172    -1.2621     0.3245 C.2     
  23 O23           -3.6724    -2.4514     0.2781 O.2     
  24 O24           -5.0257    -0.8270     0.9526 O.3     
  25 C25           -7.0827    -1.1553     2.2140 C.3     
  26 C26           -5.8825    -1.8347     1.5516 C.3     
  27 H27           -1.0626     1.6925    -1.5006 H       
  28 H28            0.2356    -0.3530    -0.9312 H       
  29 H29           -0.5221    -0.3744     0.6799 H       
  30 H30           -1.9488    -0.6278    -2.0081 H       
  31 H31           -1.7412    -1.9099    -0.7873 H       
  32 H32           -3.5671     1.4278    -1.2117 H       
  33 H33           -4.2248     1.2447     0.4349 H       
  34 H34           -1.9878     1.4872     1.4012 H       
  35 H35           -2.2971     2.8638     0.3151 H       
  36 H36            0.2461     2.1755     1.0718 H       
  37 H37           -0.6403     3.8819    -0.6670 H       
  38 H38            2.0571     2.9214    -1.7284 H       
  39 H39            0.4894     2.8393    -2.5729 H       
  40 H40            2.9869     5.4627    -1.3342 H       
  41 H41            1.9165     6.7394    -1.9678 H       
  42 H42            1.7474     6.4582     0.5311 H       
  43 H43            0.2020     6.1840    -0.3099 H       
  44 H44            0.6386     4.4267     1.3987 H       
  45 H45            2.1515     4.0028     0.5626 H       
  46 H46            3.0815     6.6741    -3.5119 H       
  47 H47            3.2909     8.9999    -4.2840 H       
  48 H48            1.3538    10.1533    -5.2684 H       
  49 H49           -0.8029     8.9899    -5.4856 H       
  50 H50           -1.0318     6.6618    -4.7258 H       
  51 H51           -7.7259    -1.9118     2.6637 H       
  52 H52           -6.7321    -0.4708     2.9864 H       
  53 H53           -7.6452    -0.5994     1.4640 H       
  54 H54           -6.2331    -2.5192     0.7792 H       
  55 H55           -5.3200    -2.3906     2.3017 H       
@<TRIPOS>BOND
   1    1    2 1
   2    1    7 1
   3    1    6 1
   4    1   27 1
   5    2    3 1
   6    2   28 1
   7    2   29 1
   8    3    4 1
   9    3   30 1
  10    3   31 1
  11    4    5 1
  12    4   22 am
  13    5    6 1
  14    5   32 1
  15    5   33 1
  16    6   34 1
  17    6   35 1
  18    7    8 1
  19    7   36 1
  20    8    9 1
  21    8   13 1
  22    8   37 1
  23    9   10 1
  24    9   38 1
  25    9   39 1
  26   10   11 1
  27   10   14 am
  28   11   12 1
  29   11   40 1
  30   11   41 1
  31   12   13 1
  32   12   42 1
  33   12   43 1
  34   13   44 1
  35   13   45 1
  36   14   15 1
  37   14   16 2
  38   15   17 ar
  39   15   21 ar
  40   17   18 ar
  41   17   46 1
  42   18   19 ar
  43   18   47 1
  44   19   20 ar
  45   19   48 1
  46   20   21 ar
  47   20   49 1
  48   21   50 1
  49   22   23 2
  50   22   24 1
  51   24   26 1
  52   25   26 1
  53   25   51 1
  54   25   52 1
  55   25   53 1
  56   26   54 1
  57   26   55 1

#	End of record

