#	Name: ASD01917411
#	Creating user name:	WinNT
#	Creation time:	15. 06. 2019 20:09

#	Modifying user name:	WinNT
#	Modification time:	15. 06. 2019 20:09

#	Program:	/corina/corina34_cracker 3.40 0067  02.08.2006

@<TRIPOS>MOLECULE
ASD01917411
  38   39    0    0    0
SMALL
NO_CHARGES


@<TRIPOS>ATOM
   1 C1            -0.0168     1.3902     0.0097 C.ar    
   2 C2             0.0021    -0.0041     0.0020 C.ar    
   3 N3             1.1281     2.0669     0.0024 N.ar    
   4 N4             1.1562    -0.6463    -0.0125 N.ar    
   5 C5             2.2907     0.0310    -0.0196 C.ar    
   6 C6             2.2753     1.4182    -0.0120 C.ar    
   7 C7            -1.3085     2.1156     0.0197 C.2     
   8 O8            -2.3536     1.4956     0.0213 O.2     
   9 N9            -1.3245     3.4633     0.0271 N.am    
  10 C10           -2.6019     4.1806     0.0371 C.3     
  11 C11           -3.4773     3.8434    -1.1826 C.3     
  12 C12           -4.8749     4.4283    -0.9703 C.3     
  13 C13           -4.7878     5.9332    -0.7085 C.3     
  14 C14           -3.8560     6.1804     0.4908 C.3     
  15 C15           -4.2427     5.1681     1.5938 C.3     
  16 C16           -3.4395     3.8875     1.3032 C.3     
  17 C17           -2.4387     5.7235     0.0554 C.3     
  18 N18           -3.8990     7.5718     0.9599 N.3     
  19 H19           -0.9252    -0.5578     0.0083 H       
  20 H20            3.2328    -0.4969    -0.0315 H       
  21 H21            3.2051     1.9676    -0.0183 H       
  22 H22           -0.4903     3.9582     0.0259 H       
  23 H23           -3.0339     4.2748    -2.0801 H       
  24 H24           -3.5477     2.7613    -1.2930 H       
  25 H25           -5.4790     4.2514    -1.8601 H       
  26 H26           -5.3442     3.9402    -0.1161 H       
  27 H27           -4.3881     6.4341    -1.5902 H       
  28 H28           -5.7810     6.3226    -0.4850 H       
  29 H29           -3.9767     5.5628     2.5744 H       
  30 H30           -5.3114     4.9578     1.5513 H       
  31 H31           -4.1172     3.0538     1.1193 H       
  32 H32           -2.7825     3.6588     2.1424 H       
  33 H33           -1.6884     6.0285     0.7848 H       
  34 H34           -2.1935     6.1023    -0.9368 H       
  35 H35           -4.8332     7.8302     1.2403 H       
  36 H36           -3.2418     7.7207     1.7109 H       
  37 Cl37           8.2328    12.8302     7.5744 Cl      
  38 H38            8.2328    14.2002     7.5744 H       
@<TRIPOS>BOND
   1    1    2 ar
   2    1    3 ar
   3    1    7 1
   4    2    4 ar
   5    2   19 1
   6    3    6 ar
   7    4    5 ar
   8    5    6 ar
   9    5   20 1
  10    6   21 1
  11    7    8 2
  12    7    9 am
  13    9   10 1
  14    9   22 1
  15   10   11 1
  16   10   16 1
  17   10   17 1
  18   11   12 1
  19   11   23 1
  20   11   24 1
  21   12   13 1
  22   12   25 1
  23   12   26 1
  24   13   14 1
  25   13   27 1
  26   13   28 1
  27   14   15 1
  28   14   17 1
  29   14   18 1
  30   15   16 1
  31   15   29 1
  32   15   30 1
  33   16   31 1
  34   16   32 1
  35   17   33 1
  36   17   34 1
  37   18   35 1
  38   18   36 1
  39   37   38 1

#	End of record

