#	Name: ASD01150100
#	Creating user name:	WinNT
#	Creation time:	15. 06. 2019 19:03

#	Modifying user name:	WinNT
#	Modification time:	15. 06. 2019 19:03

#	Program:	/corina/corina34_cracker 3.40 0067  02.08.2006

@<TRIPOS>MOLECULE
ASD01150100
  23   23    0    0    0
SMALL
NO_CHARGES


@<TRIPOS>ATOM
   1 C1            -0.0166     1.3696     0.0096 C.2     
   2 N2             0.0021    -0.0041     0.0020 N.am    
   3 C3            -1.1495    -0.7003     0.0092 C.2     
   4 N4            -2.3390    -0.0718     0.0235 N.am    
   5 C5            -2.4028     1.2743     0.0309 C.2     
   6 C6            -1.2164     2.0246     0.0303 C.2     
   7 N7             1.1580     2.0774     0.0022 N.pl3   
   8 C8             1.2829    -0.7150    -0.0145 C.3     
   9 C9             1.7431    -0.9702     1.4222 C.3     
  10 C10            3.0807    -1.7127     1.4050 C.3     
  11 O11           -1.1145    -1.9156     0.0024 O.2     
  12 O12           -3.4843     1.8369     0.0434 O.2     
  13 H13           -3.1577    -0.5920     0.0281 H       
  14 H14           -1.2511     3.1040     0.0365 H       
  15 H15            2.0069     1.6083    -0.0085 H       
  16 H16            1.1398     3.0472     0.0075 H       
  17 H17            1.1636    -1.6667    -0.5323 H       
  18 H18            2.0274    -0.1104    -0.5325 H       
  19 H19            1.8624    -0.0185     1.9400 H       
  20 H20            0.9986    -1.5748     1.9402 H       
  21 H21            2.9614    -2.6644     0.8872 H       
  22 H22            3.8252    -1.1081     0.8870 H       
  23 H23            3.4086    -1.8945     2.4285 H       
@<TRIPOS>BOND
   1    1    2 1
   2    1    7 1
   3    1    6 2
   4    2    3 am
   5    2    8 1
   6    3    4 am
   7    3   11 2
   8    4    5 am
   9    4   13 1
  10    5    6 1
  11    5   12 2
  12    6   14 1
  13    7   15 1
  14    7   16 1
  15    8    9 1
  16    8   17 1
  17    8   18 1
  18    9   10 1
  19    9   19 1
  20    9   20 1
  21   10   21 1
  22   10   22 1
  23   10   23 1

#	End of record

