#	Name: ASD03430710
#	Creating user name:	WinNT
#	Creation time:	15. 06. 2019 20:41

#	Modifying user name:	WinNT
#	Modification time:	15. 06. 2019 20:41

#	Program:	/corina/corina34_cracker 3.40 0067  02.08.2006

@<TRIPOS>MOLECULE
ASD03430710
  63   70    0    0    0
SMALL
NO_CHARGES


@<TRIPOS>ATOM
   1 C1             2.6501     0.4010    -0.0114 C.ar    
   2 C2             2.0872    -0.8563    -0.0457 C.ar    
   3 C3             2.8823    -1.9639    -0.2486 C.ar    
   4 C4             4.2583    -1.8233    -0.4128 C.ar    
   5 C5             4.8165    -0.5514    -0.3852 C.ar    
   6 C6             4.0179     0.5692    -0.1875 C.ar    
   7 O7             4.8612    -3.0360    -0.5710 O.3     
   8 C8             2.5844    -3.4350    -0.3551 C.3     
   9 C9             3.8740    -4.0122    -0.9548 C.3     
  10 C10            0.9962    -4.6121     0.8344 C.ar    
  11 C11            2.2623    -4.0495     0.9751 C.ar    
  12 C12            1.3911    -3.7139    -1.2227 C.2     
  13 N13            0.5146    -4.3992    -0.4618 N.am    
  14 O14            1.2443    -3.3861    -2.3812 O.2     
  15 C15            2.9402    -4.1360     2.1710 C.ar    
  16 C16            2.3650    -4.7874     3.2526 C.ar    
  17 C17            1.1001    -5.3494     3.1256 C.ar    
  18 C18            0.4207    -5.2626     1.9216 C.ar    
  19 C19           -0.7898    -4.8673    -0.9370 C.3     
  20 C20            2.0557     1.7788     0.2052 C.3     
  21 C21            3.3138     2.6258     0.5101 C.3     
  22 O22            4.3603     1.8868    -0.1425 O.3     
  23 C23           -1.8828    -4.1989    -0.1435 C.ar    
  24 C24           -3.0249    -4.9030     0.1891 C.ar    
  25 C25           -4.0276    -4.2899     0.9168 C.ar    
  26 C26           -3.8879    -2.9727     1.3124 C.ar    
  27 C27           -2.7454    -2.2688     0.9805 C.ar    
  28 C28           -1.7409    -2.8833     0.2565 C.ar    
  29 O29            3.0519    -4.8713     4.4252 O.3     
  30 C30            2.2937    -5.2045     5.5930 C.3     
  31 C31            1.3753    -6.3848     5.2489 C.3     
  32 O32            0.5140    -5.9855     4.1772 O.3     
  33 C33           -0.9459    -4.5234    -2.3959 C.ar    
  34 C34           -0.8984    -5.5222    -3.3503 C.ar    
  35 C35           -1.0416    -5.2068    -4.6886 C.ar    
  36 C36           -1.2328    -3.8926    -5.0723 C.ar    
  37 C37           -1.2812    -2.8939    -4.1178 C.ar    
  38 C38           -1.1424    -3.2099    -2.7792 C.ar    
  39 H39            1.0219    -0.9741     0.0869 H       
  40 H40            5.8816    -0.4321    -0.5182 H       
  41 H41            3.7992    -4.0810    -2.0401 H       
  42 H42            4.1019    -4.9850    -0.5191 H       
  43 H43            3.9218    -3.6960     2.2669 H       
  44 H44           -0.5610    -5.7024     1.8261 H       
  45 H45           -0.8567    -5.9477    -0.8091 H       
  46 H46            1.5563     2.1337    -0.6963 H       
  47 H47            1.3712     1.7787     1.0536 H       
  48 H48            3.2207     3.6237     0.0817 H       
  49 H49            3.4916     2.6805     1.5841 H       
  50 H50           -3.1340    -5.9321    -0.1199 H       
  51 H51           -4.9202    -4.8398     1.1761 H       
  52 H52           -4.6716    -2.4935     1.8803 H       
  53 H53           -2.6365    -1.2396     1.2893 H       
  54 H54           -0.8483    -2.3334    -0.0028 H       
  55 H55            2.9684    -5.4871     6.4011 H       
  56 H56            1.6927    -4.3478     5.8979 H       
  57 H57            1.9761    -7.2396     4.9385 H       
  58 H58            0.7778    -6.6519     6.1205 H       
  59 H59           -0.7490    -6.5490    -3.0505 H       
  60 H60           -1.0037    -5.9871    -5.4343 H       
  61 H61           -1.3439    -3.6461    -6.1179 H       
  62 H62           -1.4303    -1.8671    -4.4176 H       
  63 H63           -1.1802    -2.4296    -2.0335 H       
@<TRIPOS>BOND
   1    1    2 ar
   2    1    6 ar
   3    1   20 1
   4    2    3 ar
   5    2   39 1
   6    3    4 ar
   7    3    8 1
   8    4    5 ar
   9    4    7 1
  10    5    6 ar
  11    5   40 1
  12    6   22 1
  13    7    9 1
  14    8    9 1
  15    8   11 1
  16    8   12 1
  17    9   41 1
  18    9   42 1
  19   10   11 ar
  20   10   13 1
  21   10   18 ar
  22   11   15 ar
  23   12   13 am
  24   12   14 2
  25   13   19 1
  26   15   16 ar
  27   15   43 1
  28   16   17 ar
  29   16   29 1
  30   17   18 ar
  31   17   32 1
  32   18   44 1
  33   19   23 1
  34   19   33 1
  35   19   45 1
  36   20   21 1
  37   20   46 1
  38   20   47 1
  39   21   22 1
  40   21   48 1
  41   21   49 1
  42   23   24 ar
  43   23   28 ar
  44   24   25 ar
  45   24   50 1
  46   25   26 ar
  47   25   51 1
  48   26   27 ar
  49   26   52 1
  50   27   28 ar
  51   27   53 1
  52   28   54 1
  53   29   30 1
  54   30   31 1
  55   30   55 1
  56   30   56 1
  57   31   32 1
  58   31   57 1
  59   31   58 1
  60   33   34 ar
  61   33   38 ar
  62   34   35 ar
  63   34   59 1
  64   35   36 ar
  65   35   60 1
  66   36   37 ar
  67   36   61 1
  68   37   38 ar
  69   37   62 1
  70   38   63 1

#	End of record

