#	Name: ASD02038877
#	Creating user name:	WinNT
#	Creation time:	15. 06. 2019 20:17

#	Modifying user name:	WinNT
#	Modification time:	15. 06. 2019 20:17

#	Program:	/corina/corina34_cracker 3.40 0067  02.08.2006

@<TRIPOS>MOLECULE
ASD02038877
  61   62    0    0    0
SMALL
NO_CHARGES


@<TRIPOS>ATOM
   1 N1            -0.0179     1.4660     0.0101 N.am    
   2 C2             0.0021    -0.0041     0.0020 C.3     
   3 C3             1.4812    -0.4420    -0.0417 C.3     
   4 C4             2.1956     0.8049    -0.6268 C.3     
   5 C5             1.3719     1.9577    -0.0005 C.3     
   6 C6            -0.6521    -0.5324     1.2526 C.2     
   7 O7            -1.0937     0.2357     2.0741 O.2     
   8 O8            -0.7442    -1.8563     1.4539 O.3     
   9 C9            -1.1236     2.2365     0.0197 C.2     
  10 C10           -0.9956     3.7381     0.0272 C.3     
  11 C11           -0.2276     4.1782     1.2751 C.3     
  12 O12           -2.2216     1.7215     0.0223 O.2     
  13 N13           -2.3304     4.3419     0.0371 N.am    
  14 C14           -2.5108     5.5861    -0.4486 C.2     
  15 O15           -1.5663     6.2070    -0.8946 O.2     
  16 O16           -3.7374     6.1410    -0.4395 O.3     
  17 C17           -3.8574     7.4839    -0.9784 C.3     
  18 C18           -5.2919     7.9362    -0.8855 C.ar    
  19 C19           -5.7360     8.5987     0.2436 C.ar    
  20 C20           -7.0519     9.0135     0.3289 C.ar    
  21 C21           -7.9236     8.7662    -0.7151 C.ar    
  22 C22           -7.4793     8.1046    -1.8446 C.ar    
  23 C23           -6.1623     7.6936    -1.9316 C.ar    
  24 O24           -0.8808     3.6469     2.4580 O.3     
  25 C25           -0.3279     3.9435     3.6447 C.2     
  26 O26            0.6689     4.6246     3.6933 O.2     
  27 C27           -0.9505     3.4271     4.9162 C.3     
  28 C28           -1.3867    -2.2935     2.6804 C.3     
  29 C29           -2.8242    -1.7711     2.7174 C.3     
  30 C30           -1.3982    -3.8225     2.7331 C.3     
  31 C31           -0.6145    -1.7475     3.8832 C.3     
  32 H32           -0.5211    -0.3771    -0.8784 H       
  33 H33            1.8482    -0.6617     0.9609 H       
  34 H34            1.6093    -1.3030    -0.6977 H       
  35 H35            3.2356     0.8471    -0.3030 H       
  36 H36            2.1257     0.8207    -1.7144 H       
  37 H37            1.4517     2.8565    -0.6119 H       
  38 H38            1.7113     2.1579     1.0158 H       
  39 H39           -0.4572     4.0613    -0.8636 H       
  40 H40            0.7942     3.8020     1.2244 H       
  41 H41           -0.2117     5.2668     1.3269 H       
  42 H42           -3.0843     3.8462     0.3931 H       
  43 H43           -3.2246     8.1627    -0.4066 H       
  44 H44           -3.5426     7.4861    -2.0220 H       
  45 H45           -5.0549     8.7919     1.0592 H       
  46 H46           -7.3990     9.5305     1.2113 H       
  47 H47           -8.9518     9.0897    -0.6482 H       
  48 H48           -8.1604     7.9111    -2.6601 H       
  49 H49           -5.8142     7.1799    -2.8156 H       
  50 H50           -0.5198     2.4568     5.1636 H       
  51 H51           -0.7554     4.1287     5.7273 H       
  52 H52           -2.0265     3.3223     4.7774 H       
  53 H53           -3.3743    -2.1600     1.8605 H       
  54 H54           -3.3065    -2.0993     3.6381 H       
  55 H55           -2.8160    -0.6817     2.6798 H       
  56 H56           -0.3740    -4.1947     2.7068 H       
  57 H57           -1.8805    -4.1507     3.6539 H       
  58 H58           -1.9482    -4.2115     1.8763 H       
  59 H59           -0.6063    -0.6582     3.8457 H       
  60 H60           -1.0968    -2.0757     4.8040 H       
  61 H61            0.4096    -2.1197     3.8569 H       
@<TRIPOS>BOND
   1    1    2 1
   2    1    5 1
   3    1    9 am
   4    2    3 1
   5    2    6 1
   6    2   32 1
   7    3    4 1
   8    3   33 1
   9    3   34 1
  10    4    5 1
  11    4   35 1
  12    4   36 1
  13    5   37 1
  14    5   38 1
  15    6    7 2
  16    6    8 1
  17    8   28 1
  18    9   12 2
  19    9   10 1
  20   10   11 1
  21   10   13 1
  22   10   39 1
  23   11   24 1
  24   11   40 1
  25   11   41 1
  26   13   14 am
  27   13   42 1
  28   14   15 2
  29   14   16 1
  30   16   17 1
  31   17   18 1
  32   17   43 1
  33   17   44 1
  34   18   19 ar
  35   18   23 ar
  36   19   20 ar
  37   19   45 1
  38   20   21 ar
  39   20   46 1
  40   21   22 ar
  41   21   47 1
  42   22   23 ar
  43   22   48 1
  44   23   49 1
  45   24   25 1
  46   25   26 2
  47   25   27 1
  48   27   50 1
  49   27   51 1
  50   27   52 1
  51   28   29 1
  52   28   31 1
  53   28   30 1
  54   29   53 1
  55   29   54 1
  56   29   55 1
  57   30   56 1
  58   30   57 1
  59   30   58 1
  60   31   59 1
  61   31   60 1
  62   31   61 1

#	End of record

