#	Name: ASD03331196
#	Creating user name:	WinNT
#	Creation time:	15. 06. 2019 20:38

#	Modifying user name:	WinNT
#	Modification time:	15. 06. 2019 20:38

#	Program:	/corina/corina34_cracker 3.40 0067  02.08.2006

@<TRIPOS>MOLECULE
ASD03331196
  56   59    0    0    0
SMALL
NO_CHARGES


@<TRIPOS>ATOM
   1 N1            -0.0459     1.4956     0.5698 N.am    
   2 C2             0.0019     0.1506     1.1632 C.3     
   3 C3             0.5966    -0.8151     0.1327 C.3     
   4 N4             1.8894    -0.2950    -0.3322 N.3     
   5 C5             1.7288     0.9911    -1.0237 C.3     
   6 C6             1.1805     2.0309    -0.0406 C.3     
   7 C7            -1.1849     2.2161     0.5803 C.2     
   8 O8            -2.2139     1.7207     0.9974 O.2     
   9 N9            -1.1831     3.4859     0.1284 N.am    
  10 C10           -2.3851     4.1963     0.0330 C.ar    
  11 C11           -2.4015     5.5681     0.2481 C.ar    
  12 C12           -3.5892     6.2664     0.1527 C.ar    
  13 C13           -4.7613     5.6010    -0.1566 C.ar    
  14 C14           -4.7483     4.2350    -0.3714 C.ar    
  15 C15           -3.5629     3.5318    -0.2826 C.ar    
  16 C16            2.5723    -1.2724    -1.1902 C.3     
  17 C17            3.7648    -0.6215    -1.8425 C.ar    
  18 C18            4.9975    -0.6544    -1.2182 C.ar    
  19 C19            6.0915    -0.0573    -1.8166 C.ar    
  20 C20            5.9526     0.5722    -3.0392 C.ar    
  21 C21            4.7197     0.6043    -3.6641 C.ar    
  22 C22            3.6270     0.0036    -3.0679 C.ar    
  23 S23            4.5425     1.4072    -5.2224 S.o2    
  24 C24            3.8077    -0.5556    -6.9712 C.ar    
  25 C25            4.8504     0.2005    -6.4689 C.ar    
  26 C26            4.0486    -1.5023    -7.9489 C.ar    
  27 C27            5.3335    -1.6932    -8.4250 C.ar    
  28 C28            6.3765    -0.9359    -7.9223 C.ar    
  29 C29            6.1344     0.0105    -6.9446 C.ar    
  30 O30            3.1714     1.7621    -5.3374 O.2     
  31 O31            5.5999     2.3526    -5.3093 O.2     
  32 Cl32           5.6369    -2.8825    -9.6527 Cl      
  33 H33            0.6285     0.1659     2.0549 H       
  34 H34           -1.0063    -0.1697     1.4260 H       
  35 H35            0.7419    -1.7929     0.5920 H       
  36 H36           -0.0837    -0.9080    -0.7138 H       
  37 H37            2.6951     1.3233    -1.4030 H       
  38 H38            1.0326     0.8731    -1.8541 H       
  39 H39            0.9515     2.9537    -0.5736 H       
  40 H40            1.9203     2.2269     0.7355 H       
  41 H41           -0.3488     3.9073    -0.1307 H       
  42 H42           -1.4865     6.0883     0.4900 H       
  43 H43           -3.6027     7.3332     0.3202 H       
  44 H44           -5.6889     6.1492    -0.2303 H       
  45 H45           -5.6653     3.7181    -0.6128 H       
  46 H46           -3.5526     2.4657    -0.4549 H       
  47 H47            2.9044    -2.1167    -0.5862 H       
  48 H48            1.8845    -1.6240    -1.9592 H       
  49 H49            5.1061    -1.1463    -0.2629 H       
  50 H50            7.0546    -0.0824    -1.3285 H       
  51 H51            6.8071     1.0392    -3.5063 H       
  52 H52            2.6639     0.0287    -3.5560 H       
  53 H53            2.8054    -0.4095    -6.5963 H       
  54 H54            3.2340    -2.0932    -8.3409 H       
  55 H55            7.3797    -1.0842    -8.2938 H       
  56 H56            6.9485     0.6020    -6.5523 H       
@<TRIPOS>BOND
   1    1    2 1
   2    1    6 1
   3    1    7 am
   4    2    3 1
   5    2   33 1
   6    2   34 1
   7    3    4 1
   8    3   35 1
   9    3   36 1
  10    4    5 1
  11    4   16 1
  12    5    6 1
  13    5   37 1
  14    5   38 1
  15    6   39 1
  16    6   40 1
  17    7    8 2
  18    7    9 am
  19    9   10 1
  20    9   41 1
  21   10   11 ar
  22   10   15 ar
  23   11   12 ar
  24   11   42 1
  25   12   13 ar
  26   12   43 1
  27   13   14 ar
  28   13   44 1
  29   14   15 ar
  30   14   45 1
  31   15   46 1
  32   16   17 1
  33   16   47 1
  34   16   48 1
  35   17   18 ar
  36   17   22 ar
  37   18   19 ar
  38   18   49 1
  39   19   20 ar
  40   19   50 1
  41   20   21 ar
  42   20   51 1
  43   21   22 ar
  44   21   23 1
  45   22   52 1
  46   23   30 2
  47   23   31 2
  48   23   25 1
  49   24   25 ar
  50   24   26 ar
  51   24   53 1
  52   25   29 ar
  53   26   27 ar
  54   26   54 1
  55   27   28 ar
  56   27   32 1
  57   28   29 ar
  58   28   55 1
  59   29   56 1

#	End of record

