#	Name: ASD01917074
#	Creating user name:	WinNT
#	Creation time:	15. 06. 2019 20:08

#	Modifying user name:	WinNT
#	Modification time:	15. 06. 2019 20:08

#	Program:	/corina/corina34_cracker 3.40 0067  02.08.2006

@<TRIPOS>MOLECULE
ASD01917074
  40   41    0    0    0
SMALL
NO_CHARGES


@<TRIPOS>ATOM
   1 C1            -0.0184     1.5028     0.0103 C.3     
   2 C2             0.0021    -0.0041     0.0020 C.2     
   3 N3             0.5336    -0.7572    -0.9242 N.2     
   4 C4             0.3690    -2.0487    -0.6081 C.2     
   5 N5            -0.2763    -2.1240     0.5351 N.2     
   6 N6            -0.5186    -0.8043     0.9497 N.pl3   
   7 C7            -1.2105    -0.3821     2.1701 C.3     
   8 C8            -0.2107    -0.2303     3.2874 C.2     
   9 O9            -0.6203     0.1512     4.5074 O.3     
  10 O10            0.9597    -0.4520     3.0851 O.2     
  11 C11            0.3975     0.2768     5.5352 C.3     
  12 C12            0.8369    -3.2032    -1.4150 C.ar    
  13 C13            1.4170     2.0324    -0.0006 C.3     
  14 C14           -0.7584     2.0096    -1.2292 C.3     
  15 C15            0.6024    -4.5031    -0.9751 C.ar    
  16 C16            1.0417    -5.5767    -1.7327 C.ar    
  17 C17            1.7135    -5.3549    -2.9267 C.ar    
  18 C18            1.9470    -4.0642    -3.3636 C.ar    
  19 C19            1.5072    -2.9890    -2.6180 C.ar    
  20 O20            0.8151    -6.8471    -1.3064 O.3     
  21 C21            1.2957    -7.9057    -2.1374 C.3     
  22 H22           -0.5286     1.8543     0.9071 H       
  23 H23           -1.7070     0.5722     1.9946 H       
  24 H24           -1.9519    -1.1322     2.4454 H       
  25 H25            0.8894    -0.6852     5.6790 H       
  26 H26            1.1342     1.0192     5.2282 H       
  27 H27           -0.0668     0.5908     6.4700 H       
  28 H28            1.9272     1.6808    -0.8974 H       
  29 H29            1.4022     3.1222     0.0054 H       
  30 H30            1.9442     1.6713     0.8825 H       
  31 H31           -1.7809     1.6323    -1.2215 H       
  32 H32           -0.7731     3.0995    -1.2232 H       
  33 H33           -0.2482     1.6581    -2.1260 H       
  34 H34            0.0798    -4.6742    -0.0455 H       
  35 H35            2.0553    -6.1929    -3.5160 H       
  36 H36            2.4705    -3.8967    -4.2933 H       
  37 H37            1.6908    -1.9819    -2.9621 H       
  38 H38            0.8270    -7.8382    -3.1192 H       
  39 H39            2.3771    -7.8212    -2.2445 H       
  40 H40            1.0495    -8.8651    -1.6824 H       
@<TRIPOS>BOND
   1    1    2 1
   2    1   13 1
   3    1   14 1
   4    1   22 1
   5    2    3 2
   6    2    6 1
   7    3    4 1
   8    4    5 2
   9    4   12 1
  10    5    6 1
  11    6    7 1
  12    7    8 1
  13    7   23 1
  14    7   24 1
  15    8    9 1
  16    8   10 2
  17    9   11 1
  18   11   25 1
  19   11   26 1
  20   11   27 1
  21   12   15 ar
  22   12   19 ar
  23   13   28 1
  24   13   29 1
  25   13   30 1
  26   14   31 1
  27   14   32 1
  28   14   33 1
  29   15   16 ar
  30   15   34 1
  31   16   17 ar
  32   16   20 1
  33   17   18 ar
  34   17   35 1
  35   18   19 ar
  36   18   36 1
  37   19   37 1
  38   20   21 1
  39   21   38 1
  40   21   39 1
  41   21   40 1

#	End of record

