#	Name: ASD02039105
#	Creating user name:	WinNT
#	Creation time:	15. 06. 2019 20:17

#	Modifying user name:	WinNT
#	Modification time:	15. 06. 2019 20:17

#	Program:	/corina/corina34_cracker 3.40 0067  02.08.2006

@<TRIPOS>MOLECULE
ASD02039105
  43   46    0    0    0
SMALL
NO_CHARGES


@<TRIPOS>ATOM
   1 N1             0.0234     1.2844    -0.3603 N.2     
   2 N2             0.0399    -0.0020    -0.3613 N.2     
   3 C3             1.2244     1.7332    -0.0873 C.2     
   4 O4             2.0204     0.6621     0.0886 O.3     
   5 C5             1.2411    -0.4221    -0.0915 C.2     
   6 N6             1.6034     3.0605     0.0025 N.pl3   
   7 C7             0.6392     4.0715    -0.0888 C.ar    
   8 C8             1.6810    -1.8604     0.0026 C.3     
   9 O9             2.1170    -2.3102    -1.2818 O.3     
  10 C10            2.5498    -3.5960    -1.3714 C.ar    
  11 C11            2.9869    -4.0961    -2.5899 C.ar    
  12 C12            2.5588    -4.4032    -0.2437 C.ar    
  13 C13            2.9979    -5.7118    -0.3298 C.ar    
  14 C14            3.4292    -6.2161    -1.5450 C.ar    
  15 C15            3.4269    -5.4045    -2.6789 C.ar    
  16 C16           -0.6629     3.8296     0.3290 C.ar    
  17 C17            0.9858     5.3186    -0.5920 C.ar    
  18 C18            0.0341     6.3152    -0.6818 C.ar    
  19 C19           -1.2675     6.0711    -0.2691 C.ar    
  20 C20           -1.6133     4.8273     0.2386 C.ar    
  21 O21           -2.2038     7.0534    -0.3570 O.3     
  22 N22            3.8771    -7.5426    -1.6521 N.am    
  23 C23            4.5763    -7.9106    -2.7478 C.2     
  24 C24            4.8939    -6.8890    -3.8099 C.3     
  25 O25            3.8548    -5.9122    -3.8656 O.3     
  26 O26            4.9474    -9.0583    -2.8763 O.2     
  27 C27           -3.5241     6.7327     0.0859 C.3     
  28 F28           -3.4873     6.3682     1.4360 F       
  29 F29           -4.3532     7.8482    -0.0736 F       
  30 F30           -4.0241     5.6679    -0.6713 F       
  31 H31            2.5372     3.2907     0.1287 H       
  32 H32            2.5022    -1.9433     0.7146 H       
  33 H33            0.8456    -2.4747     0.3384 H       
  34 H34            2.9833    -3.4654    -3.4666 H       
  35 H35            2.2224    -4.0090     0.7039 H       
  36 H36            3.0047    -6.3392     0.5492 H       
  37 H37           -0.9322     2.8613     0.7243 H       
  38 H38            1.9993     5.5091    -0.9127 H       
  39 H39            0.3035     7.2852    -1.0731 H       
  40 H40           -2.6269     4.6381     0.5597 H       
  41 H41            3.6876    -8.1847    -0.9501 H       
  42 H42            5.8367    -6.3974    -3.5700 H       
  43 H43            4.9798    -7.3853    -4.7765 H       
@<TRIPOS>BOND
   1    1    2 1
   2    1    3 2
   3    2    5 2
   4    3    4 1
   5    3    6 1
   6    4    5 1
   7    5    8 1
   8    6    7 1
   9    6   31 1
  10    7   16 ar
  11    7   17 ar
  12    8    9 1
  13    8   32 1
  14    8   33 1
  15    9   10 1
  16   10   11 ar
  17   10   12 ar
  18   11   15 ar
  19   11   34 1
  20   12   13 ar
  21   12   35 1
  22   13   14 ar
  23   13   36 1
  24   14   15 ar
  25   14   22 1
  26   15   25 1
  27   16   20 ar
  28   16   37 1
  29   17   18 ar
  30   17   38 1
  31   18   19 ar
  32   18   39 1
  33   19   20 ar
  34   19   21 1
  35   20   40 1
  36   21   27 1
  37   22   23 am
  38   22   41 1
  39   23   24 1
  40   23   26 2
  41   24   25 1
  42   24   42 1
  43   24   43 1
  44   27   28 1
  45   27   29 1
  46   27   30 1

#	End of record

