#	Name: ASD09740442
#	Creating user name:	WinNT
#	Creation time:	15. 06. 2019 21:23

#	Modifying user name:	WinNT
#	Modification time:	15. 06. 2019 21:23

#	Program:	/corina/corina34_cracker 3.40 0067  02.08.2006

@<TRIPOS>MOLECULE
ASD09740442
  64   68    0    0    0
SMALL
NO_CHARGES


@<TRIPOS>ATOM
   1 N1            -0.0931     1.3213     0.7192 N.2     
   2 N2            -0.1024     0.0822     0.9530 N.2     
   3 C3             1.0391     1.9568     0.8630 C.2     
   4 S4             2.2565     0.7846     1.3709 S.3     
   5 C5             1.0202    -0.4736     1.3213 C.2     
   6 C6             1.2611     3.4008     0.6396 C.ar    
   7 C7             0.2046     4.2136     0.2378 C.ar    
   8 C8             2.5310     3.9516     0.8372 C.ar    
   9 C9             2.7438     5.2972     0.6304 C.ar    
  10 C10            1.6993     6.1159     0.2243 C.ar    
  11 C11            0.4199     5.5752     0.0284 C.ar    
  12 O12            1.9144     7.4400     0.0221 O.3     
  13 C13            3.2625     7.9019     0.1283 C.3     
  14 C14            3.4309     9.1784    -0.6982 C.3     
  15 C15            3.5865     8.1971     1.5942 C.3     
  16 C16           -0.6598     6.4174    -0.3905 C.1     
  17 N17           -1.5163     7.0855    -0.7229 N.1     
  18 C18            1.2200    -1.9032     1.6402 C.ar    
  19 C19            0.1468    -2.7949     1.5590 C.ar    
  20 C20            0.3400    -4.1281     1.8575 C.ar    
  21 C21            1.5955    -4.5773     2.2358 C.ar    
  22 C22            2.6603    -3.6992     2.3176 C.ar    
  23 C23            2.4812    -2.3649     2.0169 C.ar    
  24 C24           -1.2984    -2.5587     1.1765 C.3     
  25 C25           -1.8636    -3.9577     0.8512 C.3     
  26 C26           -0.9627    -4.8826     1.6969 C.3     
  27 N27           -1.5727    -5.1280     3.0061 N.am    
  28 C28           -1.2654    -6.2455     3.6939 C.2     
  29 O29           -0.4839    -7.0480     3.2291 O.2     
  30 C30           -1.8929    -6.4979     5.0406 C.3     
  31 N31           -1.3992    -7.7721     5.5798 N.3     
  32 C32           -1.8005    -7.9406     6.9886 C.3     
  33 C33           -1.9223    -8.9150     4.8014 C.3     
  34 C34           -2.1020   -10.0511     5.8390 C.3     
  35 C35           -2.5882    -9.2641     7.0844 C.3     
  36 H36           -0.7780     3.7909     0.0885 H       
  37 H37            3.3481     3.3202     1.1535 H       
  38 H38            3.7270     5.7164     0.7851 H       
  39 H39            3.9401     7.1346    -0.2461 H       
  40 H40            2.7534     9.9457    -0.3238 H       
  41 H41            4.4592     9.5307    -0.6172 H       
  42 H42            3.2001     8.9681    -1.7426 H       
  43 H43            2.9089     8.9645     1.9687 H       
  44 H44            3.4665     7.2877     2.1831 H       
  45 H45            4.6148     8.5494     1.6752 H       
  46 H46            1.7431    -5.6214     2.4690 H       
  47 H47            3.6346    -4.0592     2.6134 H       
  48 H48            3.3127    -1.6787     2.0807 H       
  49 H49           -1.8428    -2.1152     2.0102 H       
  50 H50           -1.3571    -1.9138     0.2997 H       
  51 H51           -2.9044    -4.0378     1.1649 H       
  52 H52           -1.7595    -4.1805    -0.2107 H       
  53 H53           -0.7925    -5.8246     1.1756 H       
  54 H54           -2.1978    -4.4861     3.3779 H       
  55 H55           -1.6294    -5.6887     5.7217 H       
  56 H56           -2.9767    -6.5442     4.9336 H       
  57 H57           -0.9155    -7.9890     7.6230 H       
  58 H58           -2.4344    -7.1087     7.2956 H       
  59 H59           -2.8804    -8.6592     4.3490 H       
  60 H60           -1.2065    -9.2111     4.0345 H       
  61 H61           -2.8566   -10.7652     5.5093 H       
  62 H62           -1.1542   -10.5511     6.0385 H       
  63 H63           -2.3351    -9.7978     8.0005 H       
  64 H64           -3.6609    -9.0791     7.0288 H       
@<TRIPOS>BOND
   1    1    2 1
   2    1    3 2
   3    2    5 2
   4    3    4 1
   5    3    6 1
   6    4    5 1
   7    5   18 1
   8    6    7 ar
   9    6    8 ar
  10    7   11 ar
  11    7   36 1
  12    8    9 ar
  13    8   37 1
  14    9   10 ar
  15    9   38 1
  16   10   11 ar
  17   10   12 1
  18   11   16 1
  19   12   13 1
  20   13   14 1
  21   13   15 1
  22   13   39 1
  23   14   40 1
  24   14   41 1
  25   14   42 1
  26   15   43 1
  27   15   44 1
  28   15   45 1
  29   16   17 3
  30   18   19 ar
  31   18   23 ar
  32   19   20 ar
  33   19   24 1
  34   20   21 ar
  35   20   26 1
  36   21   22 ar
  37   21   46 1
  38   22   23 ar
  39   22   47 1
  40   23   48 1
  41   24   25 1
  42   24   49 1
  43   24   50 1
  44   25   26 1
  45   25   51 1
  46   25   52 1
  47   26   27 1
  48   26   53 1
  49   27   28 am
  50   27   54 1
  51   28   29 2
  52   28   30 1
  53   30   31 1
  54   30   55 1
  55   30   56 1
  56   31   32 1
  57   31   33 1
  58   32   35 1
  59   32   57 1
  60   32   58 1
  61   33   34 1
  62   33   59 1
  63   33   60 1
  64   34   35 1
  65   34   61 1
  66   34   62 1
  67   35   63 1
  68   35   64 1

#	End of record

