#	Name: ASD04560098
#	Creating user name:	WinNT
#	Creation time:	15. 06. 2019 20:49

#	Modifying user name:	WinNT
#	Modification time:	15. 06. 2019 20:49

#	Program:	/corina/corina34_cracker 3.40 0067  02.08.2006

@<TRIPOS>MOLECULE
ASD04560098
  67   69    0    0    0
SMALL
NO_CHARGES


@<TRIPOS>ATOM
   1 C1            -0.0173     1.3666     0.0244 C.ar    
   2 C2             0.0010    -0.0041     0.0240 C.ar    
   3 C3             1.2157    -0.6859     0.0136 C.ar    
   4 C4             2.4151     0.0225     0.0034 C.ar    
   5 C5             2.4031     1.3933     0.0042 C.ar    
   6 C6             1.1852     2.0805     0.0143 C.ar    
   7 C7             1.1690     3.5549     0.0146 C.2     
   8 O8             2.2154     4.1746     0.0062 O.2     
   9 N9            -0.0055     4.2159     0.0243 N.am    
  10 C10           -0.0226     5.6108     0.1376 C.ar    
  11 C11           -0.9920     6.3506    -0.5268 C.ar    
  12 C12            0.9074     7.6331     1.0301 C.ar    
  13 C13            0.9263     6.2566     0.9193 C.ar    
  14 S14            1.2351    -2.4478     0.0137 S.3     
  15 C15           -1.0073     7.7269    -0.4133 C.ar    
  16 C16           -0.0567     8.3693     0.3621 C.ar    
  17 F17           -0.0734     9.7157     0.4718 F       
  18 C18            3.0069    -2.8364    -0.0017 C.3     
  19 C19            3.1932    -4.3318    -0.0030 C.2     
  20 C20            4.5460    -4.9033    -0.0147 C.ar    
  21 O21            2.2259    -5.0635     0.0055 O.2     
  22 C22            4.7219    -6.2926    -0.0160 C.ar    
  23 C23            5.9871    -6.8210    -0.0274 C.ar    
  24 C24            7.0946    -5.9798    -0.0373 C.ar    
  25 C25            6.9255    -4.5993    -0.0360 C.ar    
  26 C26            5.6645    -4.0607    -0.0305 C.ar    
  27 C27            8.1301    -3.6939    -0.0467 C.3     
  28 O28            8.3443    -6.5076    -0.0476 O.3     
  29 C29            7.6711    -2.2343    -0.0430 C.3     
  30 C30            8.9820    -3.9638     1.1952 C.3     
  31 C31            8.9602    -3.9642    -1.3032 C.3     
  32 C32            6.1780    -8.3158    -0.0288 C.3     
  33 C33            4.8117    -9.0044    -0.0162 C.3     
  34 C34            6.9466    -8.7307    -1.2850 C.3     
  35 C35            6.9693    -8.7301     1.2133 C.3     
  36 H36           -0.9594     1.8947     0.0280 H       
  37 H37           -0.9274    -0.5560     0.0322 H       
  38 H38            3.3553    -0.5088    -0.0047 H       
  39 H39            3.3333     1.9420    -0.0029 H       
  40 H40           -0.8390     3.7249    -0.0472 H       
  41 H41           -1.7331     5.8500    -1.1322 H       
  42 H42            1.6452     8.1357     1.6379 H       
  43 H43            1.6784     5.6828     1.4404 H       
  44 H44           -1.7610     8.3026    -0.9299 H       
  45 H45            3.4641    -2.4125    -0.8957 H       
  46 H46            3.4796    -2.4122     0.8841 H       
  47 H47            3.8626    -6.9466    -0.0077 H       
  48 H48            5.5342    -2.9886    -0.0299 H       
  49 H49            8.6991    -6.6611    -0.9340 H       
  50 H50            7.0797    -2.0417     0.8522 H       
  51 H51            8.5424    -1.5794    -0.0507 H       
  52 H52            7.0642    -2.0421    -0.9277 H       
  53 H53            9.3090    -5.0036     1.1925 H       
  54 H54            9.8533    -3.3089     1.1874 H       
  55 H55            8.3906    -3.7712     2.0903 H       
  56 H56            8.3532    -3.7719    -2.1880 H       
  57 H57            9.8314    -3.3093    -1.3110 H       
  58 H58            9.2872    -5.0040    -1.3059 H       
  59 H59            4.2479    -8.7093    -0.9011 H       
  60 H60            4.9497   -10.0856    -0.0172 H       
  61 H61            4.2641    -8.7089     0.8787 H       
  62 H62            7.9199    -8.2402    -1.2940 H       
  63 H63            7.0846    -9.8119    -1.2860 H       
  64 H64            6.3828    -8.4356    -2.1700 H       
  65 H65            6.4218    -8.4346     2.1083 H       
  66 H66            7.1074    -9.8113     1.2123 H       
  67 H67            7.9427    -8.2396     1.2044 H       
@<TRIPOS>BOND
   1    1    2 ar
   2    1    6 ar
   3    1   36 1
   4    2    3 ar
   5    2   37 1
   6    3    4 ar
   7    3   14 1
   8    4    5 ar
   9    4   38 1
  10    5    6 ar
  11    5   39 1
  12    6    7 1
  13    7    8 2
  14    7    9 am
  15    9   10 1
  16    9   40 1
  17   10   11 ar
  18   10   13 ar
  19   11   15 ar
  20   11   41 1
  21   12   13 ar
  22   12   16 ar
  23   12   42 1
  24   13   43 1
  25   14   18 1
  26   15   16 ar
  27   15   44 1
  28   16   17 1
  29   18   19 1
  30   18   45 1
  31   18   46 1
  32   19   20 1
  33   19   21 2
  34   20   22 ar
  35   20   26 ar
  36   22   23 ar
  37   22   47 1
  38   23   24 ar
  39   23   32 1
  40   24   25 ar
  41   24   28 1
  42   25   26 ar
  43   25   27 1
  44   26   48 1
  45   27   29 1
  46   27   30 1
  47   27   31 1
  48   28   49 1
  49   29   50 1
  50   29   51 1
  51   29   52 1
  52   30   53 1
  53   30   54 1
  54   30   55 1
  55   31   56 1
  56   31   57 1
  57   31   58 1
  58   32   33 1
  59   32   34 1
  60   32   35 1
  61   33   59 1
  62   33   60 1
  63   33   61 1
  64   34   62 1
  65   34   63 1
  66   34   64 1
  67   35   65 1
  68   35   66 1
  69   35   67 1

#	End of record

