#	Name: ASD01885674
#	Creating user name:	WinNT
#	Creation time:	15. 06. 2019 19:50

#	Modifying user name:	WinNT
#	Modification time:	15. 06. 2019 19:50

#	Program:	/corina/corina34_cracker 3.40 0067  02.08.2006

@<TRIPOS>MOLECULE
ASD01885674
  48   51    0    0    0
SMALL
NO_CHARGES


@<TRIPOS>ATOM
   1 C1            -0.0170     1.4037     0.0098 C.ar    
   2 C2            -1.2665     2.0740     0.0193 C.ar    
   3 C3            -1.2874     3.4920     0.0272 C.ar    
   4 C4            -0.0700     4.1597     0.0250 C.ar    
   5 C5             1.1199     3.4234     0.0154 C.ar    
   6 N6             1.1178     2.1038     0.0027 N.ar    
   7 C7             0.0021    -0.0041     0.0020 C.ar    
   8 C8            -1.1700    -0.6951     0.0090 C.ar    
   9 C9            -2.3952    -0.0320     0.0237 C.ar    
  10 C10           -2.4530     1.3298     0.0204 C.ar    
  11 C11           -2.5666     4.2367     0.0368 C.ar    
  12 C12           -2.7764     5.2544     0.9685 C.ar    
  13 C13           -3.9686     5.9460     0.9742 C.ar    
  14 C14           -3.5634     3.9267    -0.8894 C.ar    
  15 C15            2.4157     4.1442     0.0060 C.2     
  16 N16            3.5718     3.4518    -0.0152 N.am    
  17 O17            2.4352     5.3590     0.0175 O.2     
  18 C18           -1.1424    -2.2019     0.0132 C.3     
  19 N19           -1.1523    -2.6944    -1.3665 N.am    
  20 C20           -0.0317    -2.9173    -2.0643 C.2     
  21 C21           -0.3963    -3.4182    -3.4448 C.3     
  22 C22           -1.9381    -3.4465    -3.4236 C.3     
  23 C23           -2.2826    -2.9639    -2.0314 C.2     
  24 O24            1.0963    -2.7447    -1.6551 O.2     
  25 C25           -4.9605     5.6312     0.0543 C.ar    
  26 C26           -4.7531     4.6225    -0.8778 C.ar    
  27 O27           -6.1341     6.3148     0.0628 O.3     
  28 O28           -3.4044    -2.8349    -1.5905 O.2     
  29 C29           -7.1106     5.9396    -0.9107 C.3     
  30 H30           -0.0416     5.2393     0.0305 H       
  31 H31            0.9434    -0.5334    -0.0098 H       
  32 H32           -3.3109    -0.6043     0.0376 H       
  33 H33           -3.4089     1.8323     0.0276 H       
  34 H34           -2.0058     5.4995     1.6843 H       
  35 H35           -4.1318     6.7334     1.6951 H       
  36 H36           -3.4027     3.1427    -1.6147 H       
  37 H37            3.5562     2.4820    -0.0243 H       
  38 H38            4.4195     3.9233    -0.0213 H       
  39 H39           -0.2389    -2.5473     0.5158 H       
  40 H40           -2.0184    -2.5799     0.5402 H       
  41 H41           -0.0357    -2.7308    -4.2099 H       
  42 H42            0.0035    -4.4191    -3.6076 H       
  43 H43           -2.3446    -2.7731    -4.1782 H       
  44 H44           -2.3054    -4.4614    -3.5759 H       
  45 H45           -5.5265     4.3803    -1.5916 H       
  46 H46           -7.3803     4.8929    -0.7700 H       
  47 H47           -7.9977     6.5622    -0.7942 H       
  48 H48           -6.6987     6.0774    -1.9104 H       
@<TRIPOS>BOND
   1    1    7 ar
   2    1    6 ar
   3    1    2 ar
   4    2    3 ar
   5    2   10 ar
   6    3   11 1
   7    3    4 ar
   8    4    5 ar
   9    4   30 1
  10    5   15 1
  11    5    6 ar
  12    7    8 ar
  13    7   31 1
  14    8    9 ar
  15    8   18 1
  16    9   10 ar
  17    9   32 1
  18   10   33 1
  19   11   12 ar
  20   11   14 ar
  21   12   13 ar
  22   12   34 1
  23   13   25 ar
  24   13   35 1
  25   14   26 ar
  26   14   36 1
  27   15   16 am
  28   15   17 2
  29   16   37 1
  30   16   38 1
  31   18   19 1
  32   18   39 1
  33   18   40 1
  34   19   20 am
  35   19   23 am
  36   20   21 1
  37   20   24 2
  38   21   22 1
  39   21   41 1
  40   21   42 1
  41   22   23 1
  42   22   43 1
  43   22   44 1
  44   23   28 2
  45   25   26 ar
  46   25   27 1
  47   26   45 1
  48   27   29 1
  49   29   46 1
  50   29   47 1
  51   29   48 1

#	End of record

