#	Name: ASD01880104
#	Creating user name:	WinNT
#	Creation time:	15. 06. 2019 19:40

#	Modifying user name:	WinNT
#	Modification time:	15. 06. 2019 19:40

#	Program:	/corina/corina34_cracker 3.40 0067  02.08.2006

@<TRIPOS>MOLECULE
ASD01880104
  64   68    0    0    0
SMALL
NO_CHARGES


@<TRIPOS>ATOM
   1 C1            -0.0169     1.3935     0.0097 C.ar    
   2 C2             0.0021    -0.0041     0.0020 C.ar    
   3 C3            -1.1805    -0.7080     0.0100 C.ar    
   4 C4            -2.3988    -0.0280     0.0253 C.ar    
   5 C5            -2.4210     1.3665     0.0330 C.ar    
   6 C6            -1.2388     2.0747     0.0309 C.ar    
   7 C7            -3.6714    -0.7888     0.0329 C.ar    
   8 C8            -3.6534    -2.1825     0.0248 C.ar    
   9 C9            -4.8411    -2.8855     0.0324 C.ar    
  10 C10           -6.0478    -2.2095     0.0481 C.ar    
  11 C11           -6.0719    -0.8262     0.0557 C.ar    
  12 C12           -4.8907    -0.1129     0.0540 C.ar    
  13 C13           -7.3907    -0.0971     0.0718 C.3     
  14 O14           -7.7951     0.1261     1.4240 O.3     
  15 C15           -8.9704     0.7758     1.6161 C.ar    
  16 C16           -9.7209     1.1911     0.5226 C.ar    
  17 C17          -10.9164     1.8520     0.7139 C.ar    
  18 C18          -11.3731     2.1035     2.0096 C.ar    
  19 C19          -10.6045     1.6778     3.1069 C.ar    
  20 C20           -9.4260     1.0207     2.9071 C.ar    
  21 C21          -11.9058     2.3997    -0.2864 C.3     
  22 C22          -13.0420     3.0274     0.5326 C.3     
  23 C23          -12.6586     2.8144     1.9768 C.2     
  24 C24          -13.1513     4.5229     0.2283 C.3     
  25 C25          -13.4422     4.7365    -1.2675 C.3     
  26 C26          -14.7967     5.4698    -1.3527 C.3     
  27 C27          -14.9338     6.1751     0.0195 C.3     
  28 C28          -14.3392     5.1338     0.9999 C.3     
  29 O29          -13.3003     3.1689     2.9431 O.2     
  30 C30           -8.6093     0.5677     4.0898 C.3     
  31 C31          -11.0869     1.9440     4.5096 C.3     
  32 Cl32          -1.2659     3.8105     0.0404 Cl      
  33 C33            1.2499     2.1493     0.0017 C.2     
  34 O34            1.2326     3.3641     0.0084 O.2     
  35 O35            2.4263     1.4924    -0.0131 O.3     
  36 H36            0.9445    -0.5314    -0.0105 H       
  37 H37           -1.1655    -1.7879     0.0041 H       
  38 H38           -3.3648     1.8913     0.0445 H       
  39 H39           -2.7118    -2.7114     0.0122 H       
  40 H40           -4.8284    -3.9654     0.0258 H       
  41 H41           -6.9747    -2.7637     0.0540 H       
  42 H42           -4.9107     0.9669     0.0600 H       
  43 H43           -7.2827     0.8603    -0.4379 H       
  44 H44           -8.1439    -0.6974    -0.4384 H       
  45 H45           -9.3672     0.9962    -0.4791 H       
  46 H46          -11.4292     3.1577    -0.9080 H       
  47 H47          -12.2939     1.5938    -0.9092 H       
  48 H48          -13.9856     2.5271     0.3147 H       
  49 H49          -12.2260     5.0284     0.5047 H       
  50 H50          -12.6585     5.3465    -1.7169 H       
  51 H51          -13.5055     3.7748    -1.7766 H       
  52 H52          -14.7835     6.2032    -2.1589 H       
  53 H53          -15.6081     4.7566    -1.4978 H       
  54 H54          -14.3549     7.0984     0.0388 H       
  55 H55          -15.9810     6.3696     0.2510 H       
  56 H56          -15.0767     4.3663     1.2348 H       
  57 H57          -13.9921     5.6220     1.9106 H       
  58 H58           -8.9126    -0.4392     4.3766 H       
  59 H59           -7.5525     0.5666     3.8226 H       
  60 H60           -8.7720     1.2481     4.9257 H       
  61 H61          -11.7007     1.1091     4.8473 H       
  62 H62          -10.2297     2.0567     5.1733 H       
  63 H63          -11.6791     2.8590     4.5225 H       
  64 H64            3.2296     2.0306    -0.0179 H       
@<TRIPOS>BOND
   1    1    2 ar
   2    1   33 1
   3    1    6 ar
   4    2    3 ar
   5    2   36 1
   6    3    4 ar
   7    3   37 1
   8    4    5 ar
   9    4    7 1
  10    5    6 ar
  11    5   38 1
  12    6   32 1
  13    7    8 ar
  14    7   12 ar
  15    8    9 ar
  16    8   39 1
  17    9   10 ar
  18    9   40 1
  19   10   11 ar
  20   10   41 1
  21   11   12 ar
  22   11   13 1
  23   12   42 1
  24   13   14 1
  25   13   43 1
  26   13   44 1
  27   14   15 1
  28   15   16 ar
  29   15   20 ar
  30   16   17 ar
  31   16   45 1
  32   17   18 ar
  33   17   21 1
  34   18   19 ar
  35   18   23 1
  36   19   20 ar
  37   19   31 1
  38   20   30 1
  39   21   22 1
  40   21   46 1
  41   21   47 1
  42   22   23 1
  43   22   24 1
  44   22   48 1
  45   23   29 2
  46   24   25 1
  47   24   28 1
  48   24   49 1
  49   25   26 1
  50   25   50 1
  51   25   51 1
  52   26   27 1
  53   26   52 1
  54   26   53 1
  55   27   28 1
  56   27   54 1
  57   27   55 1
  58   28   56 1
  59   28   57 1
  60   30   58 1
  61   30   59 1
  62   30   60 1
  63   31   61 1
  64   31   62 1
  65   31   63 1
  66   33   34 2
  67   33   35 1
  68   35   64 1

#	End of record

