#	Name: ASD01900352
#	Creating user name:	WinNT
#	Creation time:	15. 06. 2019 19:51

#	Modifying user name:	WinNT
#	Modification time:	15. 06. 2019 19:51

#	Program:	/corina/corina34_cracker 3.40 0067  02.08.2006

@<TRIPOS>MOLECULE
ASD01900352
  47   50    0    0    0
SMALL
NO_CHARGES


@<TRIPOS>ATOM
   1 C1            -0.0865     1.3330     0.0027 C.ar    
   2 C2            -0.0841    -0.0603    -0.0028 C.ar    
   3 C3             1.1283    -0.7312    -0.0211 C.ar    
   4 C4             2.2968     0.0148    -0.0334 C.ar    
   5 C5             2.2196     1.3981    -0.0270 C.ar    
   6 N6             1.0553     2.0096    -0.0094 N.ar    
   7 C7            -1.3741     2.0652     0.0160 C.2     
   8 O8            -2.4227     1.4506     0.0222 O.2     
   9 N9            -1.3829     3.4129     0.0214 N.am    
  10 N10           -4.1045     5.7216     0.0525 N.am    
  11 C11           -2.7637     5.4521     0.0406 C.2     
  12 C12           -2.6053     4.1080     0.0340 C.2     
  13 C13           -3.8955     3.5328     0.0423 C.2     
  14 C14           -4.7887     4.5426     0.0535 C.2     
  15 S15           -4.7846     7.2314     0.0702 S.o2    
  16 O16           -6.0849     7.0793     0.6228 O.2     
  17 O17           -3.8060     8.1060     0.6150 O.2     
  18 C18           -5.0109     7.7211    -1.6072 C.ar    
  19 C19           -6.1922     7.4206    -2.2602 C.ar    
  20 C20           -6.3727     7.8031    -3.5750 C.ar    
  21 C21           -5.3665     8.4906    -4.2410 C.ar    
  22 C22           -4.1816     8.7912    -3.5822 C.ar    
  23 C23           -4.0092     8.4101    -2.2659 C.ar    
  24 N24           -5.5461     8.8791    -5.5732 N.am    
  25 C25           -4.6800     9.6397    -6.2648 C.2     
  26 C26           -5.1959     9.8708    -7.6680 C.3     
  27 C27           -6.6919     9.4874    -7.5899 C.3     
  28 C28           -6.7012     8.5033    -6.3969 C.3     
  29 O29           -3.6369    10.0773    -5.8273 O.2     
  30 H30           -1.0139    -0.6096     0.0075 H       
  31 H31            1.1621    -1.8107    -0.0254 H       
  32 H32            3.2579    -0.4777    -0.0474 H       
  33 H33            3.1280     1.9822    -0.0361 H       
  34 H34           -0.5461     3.9034     0.0165 H       
  35 H35           -1.9697     6.1843     0.0367 H       
  36 H36           -4.1244     2.4774     0.0403 H       
  37 H37           -5.8634     4.4357     0.0618 H       
  38 H38           -6.9743     6.8860    -1.7417 H       
  39 H39           -7.2953     7.5675    -4.0847 H       
  40 H40           -3.3972     9.3257    -4.0974 H       
  41 H41           -3.0895     8.6472    -1.7517 H       
  42 H42           -5.0847    10.9184    -7.9476 H       
  43 H43           -4.6740     9.2282    -8.3770 H       
  44 H44           -7.3086    10.3623    -7.3839 H       
  45 H45           -7.0155     8.9906    -8.5045 H       
  46 H46           -6.5951     7.4774    -6.7498 H       
  47 H47           -7.6232     8.6131    -5.8260 H       
@<TRIPOS>BOND
   1    1    2 ar
   2    1    6 ar
   3    1    7 1
   4    2    3 ar
   5    2   30 1
   6    3    4 ar
   7    3   31 1
   8    4    5 ar
   9    4   32 1
  10    5    6 ar
  11    5   33 1
  12    7    8 2
  13    7    9 am
  14    9   12 1
  15    9   34 1
  16   10   11 1
  17   10   14 1
  18   10   15 am
  19   11   12 2
  20   11   35 1
  21   12   13 1
  22   13   14 2
  23   13   36 1
  24   14   37 1
  25   15   16 2
  26   15   17 2
  27   15   18 1
  28   18   19 ar
  29   18   23 ar
  30   19   20 ar
  31   19   38 1
  32   20   21 ar
  33   20   39 1
  34   21   22 ar
  35   21   24 1
  36   22   23 ar
  37   22   40 1
  38   23   41 1
  39   24   25 am
  40   24   28 1
  41   25   26 1
  42   25   29 2
  43   26   27 1
  44   26   42 1
  45   26   43 1
  46   27   28 1
  47   27   44 1
  48   27   45 1
  49   28   46 1
  50   28   47 1

#	End of record

