#	Name: ASD08170450
#	Creating user name:	WinNT
#	Creation time:	15. 06. 2019 21:17

#	Modifying user name:	WinNT
#	Modification time:	15. 06. 2019 21:17

#	Program:	/corina/corina34_cracker 3.40 0067  02.08.2006

@<TRIPOS>MOLECULE
ASD08170450
  67   69    0    0    0
SMALL
NO_CHARGES


@<TRIPOS>ATOM
   1 N1            -0.0158     1.3137     0.0093 N.ar    
   2 C2             0.0021    -0.0041     0.0020 C.ar    
   3 C3            -1.2927    -0.7751     0.0097 C.3     
   4 C4            -4.3085    -0.6706     2.4013 C.3     
   5 C5            -5.6034    -1.4417     2.4090 C.2     
   6 N6            -5.8161    -2.5717     3.0053 N.2     
   7 N7            -6.9747    -3.0603     2.8928 N.2     
   8 C8            -7.8451    -2.3942     2.1957 C.2     
   9 S9            -7.1037    -0.9636     1.6141 S.3     
  10 N10           -9.1622    -2.7763     1.9646 N.am    
  11 C11           -3.4579    -1.1142     1.2095 C.3     
  12 C12           -2.1434    -0.3315     1.2016 C.3     
  13 C13           -9.6309    -3.9279     2.4848 C.2     
  14 O14           -8.9041    -4.6310     3.1545 O.2     
  15 C15          -11.0581    -4.3420     2.2344 C.3     
  16 C16          -11.2522    -4.6123     0.7646 C.ar    
  17 C17          -10.9399    -5.8536     0.2431 C.ar    
  18 C18          -11.1180    -6.1015    -1.1054 C.ar    
  19 C19          -11.6086    -5.1082    -1.9318 C.ar    
  20 C20          -11.9218    -3.8669    -1.4100 C.ar    
  21 C21          -11.7479    -3.6203    -0.0612 C.ar    
  22 O22          -11.3480    -5.5267     2.9789 O.3     
  23 C23          -12.4564    -2.7837    -2.3111 C.3     
  24 N24          -13.9186    -2.8623    -2.3549 N.am    
  25 C25          -14.6184    -1.9865    -3.1030 C.2     
  26 O26          -15.9623    -2.0587    -3.1432 O.3     
  27 O27          -14.0366    -1.1317    -3.7412 O.2     
  28 C28          -16.6504    -1.0833    -3.9698 C.3     
  29 C29          -16.1874    -1.2272    -5.4210 C.3     
  30 C30          -18.1597    -1.3213    -3.8901 C.3     
  31 C31          -16.3293     0.3264    -3.4694 C.3     
  32 C32            1.2133    -0.6820    -0.0132 C.ar    
  33 C33            2.3790     0.0670    -0.0203 C.ar    
  34 C34            2.2618     1.4569    -0.0117 C.ar    
  35 N35            1.0598     2.0139     0.0028 N.ar    
  36 N36            3.4011     2.2540    -0.0188 N.pl3   
  37 H37           -1.8356    -0.5828    -0.9157 H       
  38 H38           -1.0804    -1.8411     0.0916 H       
  39 H39           -4.5209     0.3953     2.3194 H       
  40 H40           -3.7657    -0.8629     3.3267 H       
  41 H41           -9.7434    -2.2141     1.4290 H       
  42 H42           -3.2456    -2.1802     1.2913 H       
  43 H43           -4.0008    -0.9220     0.2840 H       
  44 H44           -1.6005    -0.5237     2.1270 H       
  45 H45           -2.3557     0.7345     1.1197 H       
  46 H46          -11.7289    -3.5423     2.5484 H       
  47 H47          -10.5565    -6.6297     0.8888 H       
  48 H48          -10.8733    -7.0712    -1.5130 H       
  49 H49          -11.7470    -5.3017    -2.9853 H       
  50 H50          -11.9926    -2.6506     0.3465 H       
  51 H51          -10.7878    -6.2813     2.7512 H       
  52 H52          -12.1563    -1.8093    -1.9256 H       
  53 H53          -12.0552    -2.9162    -3.3159 H       
  54 H54          -14.3831    -3.5447    -1.8455 H       
  55 H55          -16.4161    -2.2315    -5.7775 H       
  56 H56          -16.7039    -0.4949    -6.0415 H       
  57 H57          -15.1121    -1.0576    -5.4778 H       
  58 H58          -18.4896    -1.2188    -2.8563 H       
  59 H59          -18.6763    -0.5890    -4.5106 H       
  60 H60          -18.3885    -2.3256    -4.2466 H       
  61 H61          -15.2540     0.4960    -3.5262 H       
  62 H62          -16.8459     1.0587    -4.0900 H       
  63 H63          -16.6592     0.4290    -2.4356 H       
  64 H64            1.2462    -1.7615    -0.0189 H       
  65 H65            3.3477    -0.4102    -0.0318 H       
  66 H66            4.2800     1.8438    -0.0297 H       
  67 H67            3.3170     3.2203    -0.0128 H       
@<TRIPOS>BOND
   1    1    2 ar
   2    1   35 ar
   3    2    3 1
   4    2   32 ar
   5    3   12 1
   6    3   37 1
   7    3   38 1
   8    4    5 1
   9    4   11 1
  10    4   39 1
  11    4   40 1
  12    5    6 2
  13    5    9 1
  14    6    7 1
  15    7    8 2
  16    8    9 1
  17    8   10 1
  18   10   13 am
  19   10   41 1
  20   11   12 1
  21   11   42 1
  22   11   43 1
  23   12   44 1
  24   12   45 1
  25   13   14 2
  26   13   15 1
  27   15   16 1
  28   15   22 1
  29   15   46 1
  30   16   17 ar
  31   16   21 ar
  32   17   18 ar
  33   17   47 1
  34   18   19 ar
  35   18   48 1
  36   19   20 ar
  37   19   49 1
  38   20   21 ar
  39   20   23 1
  40   21   50 1
  41   22   51 1
  42   23   24 1
  43   23   52 1
  44   23   53 1
  45   24   25 am
  46   24   54 1
  47   25   26 1
  48   25   27 2
  49   26   28 1
  50   28   29 1
  51   28   30 1
  52   28   31 1
  53   29   55 1
  54   29   56 1
  55   29   57 1
  56   30   58 1
  57   30   59 1
  58   30   60 1
  59   31   61 1
  60   31   62 1
  61   31   63 1
  62   32   33 ar
  63   32   64 1
  64   33   34 ar
  65   33   65 1
  66   34   35 ar
  67   34   36 1
  68   36   66 1
  69   36   67 1

#	End of record

