#	Name: ASD01915122
#	Creating user name:	WinNT
#	Creation time:	15. 06. 2019 20:04

#	Modifying user name:	WinNT
#	Modification time:	15. 06. 2019 20:04

#	Program:	/corina/corina34_cracker 3.40 0067  02.08.2006

@<TRIPOS>MOLECULE
ASD01915122
  39   42    0    0    0
SMALL
NO_CHARGES


@<TRIPOS>ATOM
   1 C1             0.1043     2.0084     0.2886 C.ar    
   2 C2            -0.0485     0.6427     0.5380 C.ar    
   3 N3            -1.2639     0.1308     0.7450 N.ar    
   4 C4            -2.3473     0.8717     0.7239 C.ar    
   5 C5            -2.2762     2.2352     0.4830 C.ar    
   6 C6            -1.0483     2.8212     0.2675 C.ar    
   7 C7             1.5030     2.3755     0.0885 C.2     
   8 C8             2.3571     1.3588     0.1794 C.2     
   9 S9             1.5249    -0.1454     0.5191 S.3     
  10 C10            1.9358     3.7648    -0.1924 C.ar    
  11 C11            1.7607     4.7600     0.7685 C.ar    
  12 C12            2.1659     6.0517     0.5019 C.ar    
  13 C13            2.7450     6.3606    -0.7171 C.ar    
  14 C14            2.9213     5.3763    -1.6746 C.ar    
  15 C15            2.5249     4.0802    -1.4162 C.ar    
  16 Cl16           3.2516     7.9881    -1.0463 Cl      
  17 S17            4.1019     1.5065    -0.0175 S.o2    
  18 O18            4.3773     1.2208    -1.3820 O.2     
  19 O19            4.4751     2.7244     0.6123 O.2     
  20 N20            4.7993     0.2909     0.8648 N.am    
  21 C21            4.6279     0.2468     2.2509 C.ar    
  22 C22            4.2961    -0.9498     2.8733 C.ar    
  23 C23            4.1329    -0.9917     4.2440 C.ar    
  24 C24            4.2996     0.1570     4.9974 C.ar    
  25 C25            4.6298     1.3507     4.3800 C.ar    
  26 C26            4.7947     1.3983     3.0096 C.ar    
  27 Cl27           4.0937     0.1007     6.7202 Cl      
  28 H28           -3.3091     0.4119     0.8967 H       
  29 H29           -3.1753     2.8333     0.4681 H       
  30 H30           -0.9703     3.8816     0.0780 H       
  31 H31            1.3083     4.5202     1.7194 H       
  32 H32            2.0307     6.8233     1.2454 H       
  33 H33            3.3736     5.6226    -2.6239 H       
  34 H34            2.6632     3.3130    -2.1637 H       
  35 H35            5.3268    -0.3904     0.4194 H       
  36 H36            4.1655    -1.8465     2.2857 H       
  37 H37            3.8746    -1.9218     4.7284 H       
  38 H38            4.7586     2.2458     4.9703 H       
  39 H39            5.0530     2.3300     2.5283 H       
@<TRIPOS>BOND
   1    1    2 ar
   2    1    7 1
   3    1    6 ar
   4    2    3 ar
   5    2    9 1
   6    3    4 ar
   7    4    5 ar
   8    4   28 1
   9    5    6 ar
  10    5   29 1
  11    6   30 1
  12    7    8 2
  13    7   10 1
  14    8    9 1
  15    8   17 1
  16   10   11 ar
  17   10   15 ar
  18   11   12 ar
  19   11   31 1
  20   12   13 ar
  21   12   32 1
  22   13   14 ar
  23   13   16 1
  24   14   15 ar
  25   14   33 1
  26   15   34 1
  27   17   18 2
  28   17   19 2
  29   17   20 am
  30   20   21 1
  31   20   35 1
  32   21   22 ar
  33   21   26 ar
  34   22   23 ar
  35   22   36 1
  36   23   24 ar
  37   23   37 1
  38   24   25 ar
  39   24   27 1
  40   25   26 ar
  41   25   38 1
  42   26   39 1

#	End of record

