#	Name: ASD01720101
#	Creating user name:	WinNT
#	Creation time:	15. 06. 2019 19:23

#	Modifying user name:	WinNT
#	Modification time:	15. 06. 2019 19:23

#	Program:	/corina/corina34_cracker 3.40 0067  02.08.2006

@<TRIPOS>MOLECULE
ASD01720101
  64   67    0    0    0
SMALL
NO_CHARGES


@<TRIPOS>ATOM
   1 C1            -0.0525     1.3662    -0.0158 C.ar    
   2 C2            -0.0522    -0.0025    -0.0231 C.ar    
   3 C3             1.1421    -0.6904     0.1846 C.ar    
   4 N4             2.2789    -0.0397     0.3894 N.ar    
   5 C5             2.3270     1.2811     0.4051 C.ar    
   6 C6             1.1607     2.0358     0.2027 C.ar    
   7 N7             1.1411    -2.0748     0.1774 N.3     
   8 O8             3.5075     1.9096     0.6180 O.3     
   9 C9             4.6559     1.0829     0.8173 C.3     
  10 C10            5.8863     1.9644     1.0404 C.3     
  11 C11            7.1159     1.0793     1.2538 C.3     
  12 C12            8.3652     1.9570     1.3525 C.3     
  13 C13            6.9506     0.2800     2.5479 C.3     
  14 C14            1.2101     3.5068     0.2189 C.2     
  15 O15            2.2672     4.0778     0.4092 O.2     
  16 C16            2.5065    -2.6094     0.4161 C.3     
  17 C17            2.4638    -4.0484    -0.1415 C.3     
  18 C18            1.3232    -4.0421    -1.1801 C.3     
  19 C19            0.7727    -2.5999    -1.1626 C.3     
  20 C20            2.7711    -4.2562    -1.6258 C.3     
  21 C21            3.1645    -5.6426    -2.0662 C.2     
  22 O22            3.2273    -6.5383    -1.2576 O.2     
  23 O23            3.4452    -5.8826    -3.3567 O.3     
  24 N24            0.0841     4.2211     0.0230 N.am    
  25 C25            0.1118     5.6149     0.1353 C.ar    
  26 C26            1.2539     7.7011    -0.1706 C.ar    
  27 C27            1.2299     6.3248    -0.2829 C.ar    
  28 C28           -0.9811     6.2926     0.6601 C.ar    
  29 C29           -0.9506     7.6690     0.7697 C.ar    
  30 C30            0.1664     8.3724     0.3576 C.ar    
  31 C31            0.1964     9.8741     0.4792 C.3     
  32 C32           -0.3618    10.5006    -0.8002 C.3     
  33 O33           -0.3334    11.9247    -0.6849 O.3     
  34 H34           -0.9661     1.9186    -0.1790 H       
  35 H35           -0.9709    -0.5456    -0.1884 H       
  36 H36            4.5001     0.4488     1.6901 H       
  37 H37            4.8111     0.4583    -0.0625 H       
  38 H38            6.0421     2.5984     0.1676 H       
  39 H39            5.7311     2.5889     1.9201 H       
  40 H40            7.2197     0.3928     0.4135 H       
  41 H41            8.2615     2.6435     2.1928 H       
  42 H42            9.2412     1.3264     1.5046 H       
  43 H43            8.4830     2.5264     0.4306 H       
  44 H44            6.8468     0.9665     3.3882 H       
  45 H45            6.0606    -0.3453     2.4775 H       
  46 H46            7.8266    -0.3506     2.6999 H       
  47 H47            3.2464    -2.0156    -0.1205 H       
  48 H48            2.7287    -2.6216     1.4831 H       
  49 H49            2.5921    -4.8680     0.5655 H       
  50 H50            0.6025    -4.8571    -1.2462 H       
  51 H51           -0.3105    -2.6050    -1.2842 H       
  52 H52            1.2413    -2.0046    -1.9462 H       
  53 H53            3.2592    -3.4390    -2.1570 H       
  54 H54            3.6927    -6.7875    -3.5912 H       
  55 H55           -0.7454     3.7685    -0.1959 H       
  56 H56            2.1232     8.2537    -0.4953 H       
  57 H57            2.0797     5.8011    -0.6952 H       
  58 H58           -1.8540     5.7439     0.9817 H       
  59 H59           -1.8002     8.1966     1.1773 H       
  60 H60           -0.4117    10.1820     1.3298 H       
  61 H61            1.2239    10.2062     0.6280 H       
  62 H62            0.2462    10.1927    -1.6508 H       
  63 H63           -1.3893    10.1686    -0.9489 H       
  64 H64           -0.6737    12.3890    -1.4619 H       
@<TRIPOS>BOND
   1    1    2 ar
   2    1    6 ar
   3    1   34 1
   4    2    3 ar
   5    2   35 1
   6    3    4 ar
   7    3    7 1
   8    4    5 ar
   9    5    6 ar
  10    5    8 1
  11    6   14 1
  12    7   16 1
  13    7   19 1
  14    8    9 1
  15    9   10 1
  16    9   36 1
  17    9   37 1
  18   10   11 1
  19   10   38 1
  20   10   39 1
  21   11   12 1
  22   11   13 1
  23   11   40 1
  24   12   41 1
  25   12   42 1
  26   12   43 1
  27   13   44 1
  28   13   45 1
  29   13   46 1
  30   14   15 2
  31   14   24 am
  32   16   17 1
  33   16   47 1
  34   16   48 1
  35   17   18 1
  36   17   20 1
  37   17   49 1
  38   18   19 1
  39   18   20 1
  40   18   50 1
  41   19   51 1
  42   19   52 1
  43   20   21 1
  44   20   53 1
  45   21   22 2
  46   21   23 1
  47   23   54 1
  48   24   25 1
  49   24   55 1
  50   25   28 ar
  51   25   27 ar
  52   26   27 ar
  53   26   30 ar
  54   26   56 1
  55   27   57 1
  56   28   29 ar
  57   28   58 1
  58   29   30 ar
  59   29   59 1
  60   30   31 1
  61   31   32 1
  62   31   60 1
  63   31   61 1
  64   32   33 1
  65   32   62 1
  66   32   63 1
  67   33   64 1

#	End of record

