#	Name: ASD01915272
#	Creating user name:	WinNT
#	Creation time:	15. 06. 2019 20:05

#	Modifying user name:	WinNT
#	Modification time:	15. 06. 2019 20:05

#	Program:	/corina/corina34_cracker 3.40 0067  02.08.2006

@<TRIPOS>MOLECULE
ASD01915272
  45   47    0    0    0
SMALL
NO_CHARGES


@<TRIPOS>ATOM
   1 C1             0.0799     1.3552     0.1721 C.ar    
   2 C2             0.0957    -0.0269     0.1492 C.ar    
   3 C3            -1.0924    -0.7325     0.1877 C.ar    
   4 C4            -2.2963    -0.0560     0.2496 C.ar    
   5 C5            -2.3121     1.3261     0.2734 C.ar    
   6 C6            -1.1238     2.0316     0.2394 C.ar    
   7 C7             1.3752     2.1243     0.1301 C.3     
   8 S8             1.8231     2.4605    -1.5953 S.3     
   9 C9             3.3808     3.3772    -1.4413 C.3     
  10 C10            3.8906     3.7355    -2.8135 C.2     
  11 N11            5.0420     4.4232    -2.9463 N.am    
  12 C12            5.5574     4.7830    -4.2760 C.3     
  13 C13            5.8670     6.2838    -4.2882 C.3     
  14 N14            6.7610     6.6052    -3.1678 N.3     
  15 C15            6.1161     6.3324    -1.8764 C.3     
  16 C16            5.8135     4.8390    -1.7651 C.3     
  17 C17            7.1974     7.9316    -3.2396 C.ar    
  18 C18            6.7944     8.8493    -2.2790 C.ar    
  19 C19            7.2271    10.1594    -2.3523 C.ar    
  20 C20            8.0609    10.5578    -3.3818 C.ar    
  21 C21            8.4644     9.6457    -4.3415 C.ar    
  22 C22            8.0403     8.3326    -4.2697 C.ar    
  23 Cl23           8.6018    12.2050    -3.4705 Cl      
  24 Cl24           8.5465     7.1888    -5.4735 Cl      
  25 O25            3.2646     3.4050    -3.7983 O.2     
  26 H26            1.0363    -0.5555     0.1008 H       
  27 H27           -1.0800    -1.8122     0.1691 H       
  28 H28           -3.2246    -0.6072     0.2790 H       
  29 H29           -3.2527     1.8546     0.3215 H       
  30 H30           -1.1361     3.1113     0.2580 H       
  31 H31            1.2556     3.0667     0.6646 H       
  32 H32            2.1624     1.5363     0.6019 H       
  33 H33            3.2111     4.2882    -0.8675 H       
  34 H34            4.1179     2.7578    -0.9302 H       
  35 H35            6.4677     4.2196    -4.4806 H       
  36 H36            4.8061     4.5580    -5.0330 H       
  37 H37            6.3524     6.5473    -5.2279 H       
  38 H38            4.9396     6.8474    -4.1869 H       
  39 H39            6.7821     6.6312    -1.0669 H       
  40 H40            5.1852     6.8953    -1.8086 H       
  41 H41            5.2338     4.6492    -0.8617 H       
  42 H42            6.7473     4.2779    -1.7289 H       
  43 H43            6.1429     8.5395    -1.4753 H       
  44 H44            6.9136    10.8735    -1.6051 H       
  45 H45            9.1149     9.9595    -5.1446 H       
@<TRIPOS>BOND
   1    1    2 ar
   2    1    7 1
   3    1    6 ar
   4    2    3 ar
   5    2   26 1
   6    3    4 ar
   7    3   27 1
   8    4    5 ar
   9    4   28 1
  10    5    6 ar
  11    5   29 1
  12    6   30 1
  13    7    8 1
  14    7   31 1
  15    7   32 1
  16    8    9 1
  17    9   10 1
  18    9   33 1
  19    9   34 1
  20   10   11 am
  21   10   25 2
  22   11   12 1
  23   11   16 1
  24   12   13 1
  25   12   35 1
  26   12   36 1
  27   13   14 1
  28   13   37 1
  29   13   38 1
  30   14   15 1
  31   14   17 1
  32   15   16 1
  33   15   39 1
  34   15   40 1
  35   16   41 1
  36   16   42 1
  37   17   18 ar
  38   17   22 ar
  39   18   19 ar
  40   18   43 1
  41   19   20 ar
  42   19   44 1
  43   20   21 ar
  44   20   23 1
  45   21   22 ar
  46   21   45 1
  47   22   24 1

#	End of record

