#	Name: ASD03090408
#	Creating user name:	WinNT
#	Creation time:	15. 06. 2019 20:28

#	Modifying user name:	WinNT
#	Modification time:	15. 06. 2019 20:28

#	Program:	/corina/corina34_cracker 3.40 0067  02.08.2006

@<TRIPOS>MOLECULE
ASD03090408
  47   50    0    0    0
SMALL
NO_CHARGES


@<TRIPOS>ATOM
   1 C1             0.7581     1.4154    -0.4019 C.2     
   2 C2             0.5737    -0.0456    -0.3015 C.ar    
   3 C3             1.5327    -0.9110    -0.8345 C.ar    
   4 C4             1.3574    -2.2733    -0.7384 C.ar    
   5 C5             0.2278    -2.7882    -0.1126 C.ar    
   6 C6            -0.7286    -1.9305     0.4189 C.ar    
   7 C7            -0.5575    -0.5670     0.3319 C.ar    
   8 O8             1.7454     1.8674    -0.9489 O.2     
   9 N9            -0.1707     2.2485     0.1078 N.am    
  10 O10            0.0581    -4.1313    -0.0206 O.3     
  11 C11            0.5843    -4.7685     1.0581 C.ar    
  12 C12            1.1758    -4.0362     2.0775 C.ar    
  13 C13            1.7101    -4.6864     3.1730 C.ar    
  14 C14            1.6558    -6.0657     3.2542 C.ar    
  15 C15            1.0672    -6.7977     2.2395 C.ar    
  16 C16            0.5260    -6.1521     1.1448 C.ar    
  17 C17            2.2394    -6.7723     4.4505 C.3     
  18 C18            0.0123     3.6986     0.0081 C.3     
  19 N19           -4.2243     6.3115     2.6444 N.pl3   
  20 C20           -3.7024     6.3891     3.9069 C.2     
  21 C21           -2.4810     5.8327     3.9321 C.2     
  22 C22           -2.1976     5.3602     2.5747 C.ar    
  23 C23           -1.1138     4.7119     1.9792 C.ar    
  24 C24           -1.1580     4.3979     0.6503 C.ar    
  25 C25           -2.2722     4.7183    -0.1134 C.ar    
  26 C26           -3.3522     5.3583     0.4536 C.ar    
  27 C27           -3.3288     5.6875     1.8052 C.ar    
  28 H28            2.4102    -0.5118    -1.3215 H       
  29 H29            2.0981    -2.9428    -1.1501 H       
  30 H30           -1.6050    -2.3342     0.9041 H       
  31 H31           -1.2989     0.0987     0.7487 H       
  32 H32           -0.9603     1.8879     0.5407 H       
  33 H33            1.2189    -2.9589     2.0144 H       
  34 H34            2.1709    -4.1170     3.9665 H       
  35 H35            1.0267    -7.8750     2.3050 H       
  36 H36            0.0621    -6.7241     0.3548 H       
  37 H37            1.4737    -6.8787     5.2189 H       
  38 H38            2.5944    -7.7587     4.1523 H       
  39 H39            3.0722    -6.1905     4.8455 H       
  40 H40            0.9316     3.9847     0.5192 H       
  41 H41            0.0757     3.9855    -1.0415 H       
  42 H42           -5.0970     6.6431     2.3809 H       
  43 H43           -4.1993     6.8325     4.7571 H       
  44 H44           -1.8307     5.7492     4.7902 H       
  45 H45           -0.2433     4.4602     2.5669 H       
  46 H46           -2.2923     4.4636    -1.1628 H       
  47 H47           -4.2142     5.6037    -0.1489 H       
@<TRIPOS>BOND
   1    1    2 1
   2    1    8 2
   3    1    9 am
   4    2    3 ar
   5    2    7 ar
   6    3    4 ar
   7    3   28 1
   8    4    5 ar
   9    4   29 1
  10    5    6 ar
  11    5   10 1
  12    6    7 ar
  13    6   30 1
  14    7   31 1
  15    9   18 1
  16    9   32 1
  17   10   11 1
  18   11   12 ar
  19   11   16 ar
  20   12   13 ar
  21   12   33 1
  22   13   14 ar
  23   13   34 1
  24   14   15 ar
  25   14   17 1
  26   15   16 ar
  27   15   35 1
  28   16   36 1
  29   17   37 1
  30   17   38 1
  31   17   39 1
  32   18   24 1
  33   18   40 1
  34   18   41 1
  35   19   20 1
  36   19   27 1
  37   19   42 1
  38   20   21 2
  39   20   43 1
  40   21   22 1
  41   21   44 1
  42   22   23 ar
  43   22   27 ar
  44   23   24 ar
  45   23   45 1
  46   24   25 ar
  47   25   26 ar
  48   25   46 1
  49   26   27 ar
  50   26   47 1

#	End of record

