#	Name: ASD01914030
#	Creating user name:	WinNT
#	Creation time:	15. 06. 2019 20:02

#	Modifying user name:	WinNT
#	Modification time:	15. 06. 2019 20:02

#	Program:	/corina/corina34_cracker 3.40 0067  02.08.2006

@<TRIPOS>MOLECULE
ASD01914030
  41   42    0    0    0
SMALL
NO_CHARGES


@<TRIPOS>ATOM
   1 C1            -0.0167     1.3779     0.0096 C.ar    
   2 C2             0.0021    -0.0041     0.0020 C.ar    
   3 C3             1.2099    -0.6820    -0.0132 C.ar    
   4 C4             2.3810     1.4110    -0.0131 C.ar    
   5 C5             1.1694     2.0866     0.0021 C.ar    
   6 O6             3.5481     2.1071    -0.0210 O.3     
   7 C7             4.7574     1.3459    -0.0367 C.3     
   8 C8             5.9394     2.2807    -0.0434 C.ar    
   9 N9             7.1608     1.7823    -0.0579 N.ar    
  10 C10            8.2272     2.5549    -0.0644 C.ar    
  11 C11            8.0971     3.9440    -0.0556 C.ar    
  12 C12            6.8134     4.5029    -0.0403 C.ar    
  13 C13            5.7258     3.6477    -0.0401 C.ar    
  14 C14            9.2945     4.8111    -0.0619 C.2     
  15 N15           10.5248     4.2611    -0.0763 N.am    
  16 O16            9.1693     6.0202    -0.0542 O.2     
  17 C17           11.7113     5.1204    -0.0825 C.3     
  18 C18            2.3995     0.0240    -0.0208 C.ar    
  19 C19           12.8968     4.3574     0.5121 C.3     
  20 C20           12.0374     5.5292    -1.5204 C.3     
  21 C21           12.6221     4.0573     1.9870 C.3     
  22 F22            1.2262    -2.0329    -0.0202 F       
  23 H23           -0.9596     1.9044     0.0169 H       
  24 H24           -0.9262    -0.5561     0.0083 H       
  25 H25            1.1533     3.1665     0.0084 H       
  26 H26            4.7998     0.7130     0.8498 H       
  27 H27            4.7825     0.7220    -0.9301 H       
  28 H28            9.2110     2.1094    -0.0762 H       
  29 H29            6.6757     5.5741    -0.0331 H       
  30 H30            4.7208     4.0429    -0.0285 H       
  31 H31           10.6247     3.2963    -0.0824 H       
  32 H32           11.5173     6.0121     0.5136 H       
  33 H33            3.3416    -0.5040    -0.0323 H       
  34 H34           13.0350     3.4216    -0.0295 H       
  35 H35           13.7987     4.9634     0.4264 H       
  36 H36           12.2314     4.6375    -2.1165 H       
  37 H37           11.1929     6.0728    -1.9440 H       
  38 H38           12.9202     6.1685    -1.5250 H       
  39 H39           12.4838     4.9931     2.5285 H       
  40 H40           11.7201     3.4513     2.0726 H       
  41 H41           13.4666     3.5138     2.4106 H       
@<TRIPOS>BOND
   1    1    2 ar
   2    1    5 ar
   3    1   23 1
   4    2    3 ar
   5    2   24 1
   6    3   18 ar
   7    3   22 1
   8    4    5 ar
   9    4    6 1
  10    4   18 ar
  11    5   25 1
  12    6    7 1
  13    7    8 1
  14    7   26 1
  15    7   27 1
  16    8    9 ar
  17    8   13 ar
  18    9   10 ar
  19   10   11 ar
  20   10   28 1
  21   11   12 ar
  22   11   14 1
  23   12   13 ar
  24   12   29 1
  25   13   30 1
  26   14   15 am
  27   14   16 2
  28   15   17 1
  29   15   31 1
  30   17   19 1
  31   17   20 1
  32   17   32 1
  33   18   33 1
  34   19   21 1
  35   19   34 1
  36   19   35 1
  37   20   36 1
  38   20   37 1
  39   20   38 1
  40   21   39 1
  41   21   40 1
  42   21   41 1

#	End of record

