#	Name: ASD01410522
#	Creating user name:	WinNT
#	Creation time:	15. 06. 2019 19:18

#	Modifying user name:	WinNT
#	Modification time:	15. 06. 2019 19:18

#	Program:	/corina/corina34_cracker 3.40 0067  02.08.2006

@<TRIPOS>MOLECULE
ASD01410522
  64   66    0    0    0
SMALL
NO_CHARGES


@<TRIPOS>ATOM
   1 C1             0.1549    -0.2082     3.5421 C.ar    
   2 C2             1.0033    -0.6264     4.5578 C.ar    
   3 C3             2.3306    -0.8759     4.2695 C.ar    
   4 N4             2.7973    -0.7216     3.0453 N.ar    
   5 C5             2.0200    -0.3248     2.0510 C.ar    
   6 C6             0.6748    -0.0557     2.2684 C.ar    
   7 O7             2.5418    -0.1792     0.8072 O.3     
   8 C8             3.8798    -0.3632     0.6507 C.ar    
   9 C9             4.4213    -1.6382     0.7630 C.ar    
  10 C10            5.7782    -1.8363     0.6060 C.ar    
  11 C11            6.6126    -0.7609     0.3348 C.ar    
  12 C12            6.0721     0.5290     0.2202 C.ar    
  13 C13            4.6967     0.7181     0.3747 C.ar    
  14 N14            7.9832    -0.9614     0.1772 N.am    
  15 C15            8.4878    -1.2399    -1.0411 C.2     
  16 C16            8.8749    -0.8695     1.3359 C.3     
  17 O17            9.6658    -1.5005    -1.1644 O.2     
  18 C18            7.5882    -1.2275    -2.2501 C.3     
  19 C19            8.0979    -2.2424    -3.2754 C.3     
  20 C20            7.1846    -2.2298    -4.5029 C.3     
  21 C21            7.1855    -0.8319    -5.1250 C.3     
  22 C22            6.6759     0.1829    -4.0996 C.3     
  23 C23            7.5892     0.1703    -2.8722 C.3     
  24 C24            6.2722    -0.8193    -6.3524 C.3     
  25 C25            9.5001    -2.2391     1.6082 C.3     
  26 C26            9.9809     0.1480     1.0488 C.3     
  27 O27            8.4874    -3.1459     2.0490 O.3     
  28 C28            8.9684    -4.4613     2.3323 C.3     
  29 C29           -0.2068     0.3961     1.1328 C.3     
  30 F30           -1.5079     0.5998     1.6051 F       
  31 F31            0.2900     1.5923     0.6042 F       
  32 F32           -0.2211    -0.5844     0.1350 F       
  33 C33            6.9502     1.6775    -0.0672 C.2     
  34 O34            8.1250     1.4959    -0.3191 O.2     
  35 O35            6.4502     2.9287    -0.0505 O.3     
  36 H36           -0.8883    -0.0106     3.7402 H       
  37 H37            0.6296    -0.7549     5.5629 H       
  38 H38            2.9951    -1.2012     5.0564 H       
  39 H39            3.7769    -2.4787     0.9746 H       
  40 H40            6.1915    -2.8301     0.6947 H       
  41 H41            4.2733     1.7079     0.2880 H       
  42 H42            8.3051    -0.5502     2.2085 H       
  43 H43            6.5738    -1.4914    -1.9510 H       
  44 H44            9.1123    -1.9785    -3.5746 H       
  45 H45            8.0972    -3.2382    -2.8323 H       
  46 H46            7.5477    -2.9528    -5.2333 H       
  47 H47            6.1702    -2.4936    -4.2037 H       
  48 H48            8.1999    -0.5681    -5.4241 H       
  49 H49            6.6766     1.1788    -4.5428 H       
  50 H50            5.6615    -0.0810    -3.8005 H       
  51 H51            7.2261     0.8933    -2.1417 H       
  52 H52            8.6036     0.4342    -3.1713 H       
  53 H53            5.2579    -1.0832    -6.0533 H       
  54 H54            6.2729     0.1765    -6.7956 H       
  55 H55            6.6353    -1.5423    -7.0829 H       
  56 H56            9.9550    -2.6192     0.6935 H       
  57 H57           10.2631    -2.1431     2.3807 H       
  58 H58            9.5561     1.1517     1.0332 H       
  59 H59           10.7414     0.0874     1.8273 H       
  60 H60           10.4331    -0.0702     0.0813 H       
  61 H61            9.7203    -4.4114     3.1199 H       
  62 H62            8.1395    -5.0884     2.6606 H       
  63 H63            9.4123    -4.8875     1.4327 H       
  64 H64            7.0646     3.6496    -0.2451 H       
@<TRIPOS>BOND
   1    1    2 ar
   2    1    6 ar
   3    1   36 1
   4    2    3 ar
   5    2   37 1
   6    3    4 ar
   7    3   38 1
   8    4    5 ar
   9    5    6 ar
  10    5    7 1
  11    6   29 1
  12    7    8 1
  13    8    9 ar
  14    8   13 ar
  15    9   10 ar
  16    9   39 1
  17   10   11 ar
  18   10   40 1
  19   11   12 ar
  20   11   14 1
  21   12   13 ar
  22   12   33 1
  23   13   41 1
  24   14   15 am
  25   14   16 1
  26   15   17 2
  27   15   18 1
  28   16   26 1
  29   16   25 1
  30   16   42 1
  31   18   19 1
  32   18   23 1
  33   18   43 1
  34   19   20 1
  35   19   44 1
  36   19   45 1
  37   20   21 1
  38   20   46 1
  39   20   47 1
  40   21   22 1
  41   21   24 1
  42   21   48 1
  43   22   23 1
  44   22   49 1
  45   22   50 1
  46   23   51 1
  47   23   52 1
  48   24   53 1
  49   24   54 1
  50   24   55 1
  51   25   27 1
  52   25   56 1
  53   25   57 1
  54   26   58 1
  55   26   59 1
  56   26   60 1
  57   27   28 1
  58   28   61 1
  59   28   62 1
  60   28   63 1
  61   29   30 1
  62   29   31 1
  63   29   32 1
  64   33   34 2
  65   33   35 1
  66   35   64 1

#	End of record

