#	Name: ASD01915048
#	Creating user name:	WinNT
#	Creation time:	15. 06. 2019 20:04

#	Modifying user name:	WinNT
#	Modification time:	15. 06. 2019 20:04

#	Program:	/corina/corina34_cracker 3.40 0067  02.08.2006

@<TRIPOS>MOLECULE
ASD01915048
  38   40    0    0    0
SMALL
NO_CHARGES


@<TRIPOS>ATOM
   1 C1            -0.0180     1.4738     0.0101 C.2     
   2 C2             0.0021    -0.0041     0.0020 C.ar    
   3 C3             1.2185    -0.6879    -0.0133 C.ar    
   4 C4             1.2293    -2.0723    -0.0203 C.ar    
   5 C5             0.0327    -2.7767    -0.0127 C.ar    
   6 C6            -1.1732    -2.1007     0.0020 C.ar    
   7 C7            -1.1956    -0.7210     0.0154 C.ar    
   8 O8             1.0262     2.0958     0.0035 O.2     
   9 N9            -1.1942     2.1317     0.0193 N.am    
  10 S10            0.0513    -4.5386    -0.0223 S.o2    
  11 O11            0.9677    -4.9357     0.9885 O.2     
  12 O12           -1.3074    -4.9540    -0.0462 O.2     
  13 N13            0.7111    -5.0140    -1.4648 N.am    
  14 O14            2.4118    -2.7422    -0.0352 O.3     
  15 C15            3.6038    -1.9542    -0.0429 C.3     
  16 C16           -1.2130     3.5151     0.0269 C.2     
  17 N17           -0.1061     4.3142     0.0260 N.pl3   
  18 C18           -0.5471     5.6264     0.0352 C.ar    
  19 C19           -1.9509     5.5664     0.0416 C.ar    
  20 N20           -2.2945     4.2521     0.0304 N.2     
  21 C21           -2.6898     6.7519     0.0516 C.ar    
  22 C22           -2.0371     7.9644     0.0551 C.ar    
  23 C23           -0.6513     8.0180     0.0484 C.ar    
  24 C24            0.0931     6.8563     0.0393 C.ar    
  25 H25            2.1485    -0.1388    -0.0199 H       
  26 H26           -2.1005    -2.6542     0.0072 H       
  27 H27           -2.1393    -0.1961     0.0314 H       
  28 H28           -2.0276     1.6354     0.0206 H       
  29 H29            0.9989    -4.3485    -2.1092 H       
  30 H30            0.8099    -5.9579    -1.6653 H       
  31 H31            4.4735    -2.6111    -0.0546 H       
  32 H32            3.6149    -1.3207    -0.9298 H       
  33 H33            3.6322    -1.3296     0.8500 H       
  34 H34            0.8175     4.0178     0.0203 H       
  35 H35           -3.7692     6.7176     0.0562 H       
  36 H36           -2.6088     8.8807     0.0628 H       
  37 H37           -0.1515     8.9753     0.0505 H       
  38 H38            1.1720     6.9049     0.0347 H       
@<TRIPOS>BOND
   1    1    2 1
   2    1    8 2
   3    1    9 am
   4    2    3 ar
   5    2    7 ar
   6    3    4 ar
   7    3   25 1
   8    4    5 ar
   9    4   14 1
  10    5    6 ar
  11    5   10 1
  12    6    7 ar
  13    6   26 1
  14    7   27 1
  15    9   16 1
  16    9   28 1
  17   10   11 2
  18   10   12 2
  19   10   13 am
  20   13   29 1
  21   13   30 1
  22   14   15 1
  23   15   31 1
  24   15   32 1
  25   15   33 1
  26   16   17 1
  27   16   20 2
  28   17   18 1
  29   17   34 1
  30   18   19 ar
  31   18   24 ar
  32   19   20 1
  33   19   21 ar
  34   21   22 ar
  35   21   35 1
  36   22   23 ar
  37   22   36 1
  38   23   24 ar
  39   23   37 1
  40   24   38 1

#	End of record

