#	Name: ASD05430166
#	Creating user name:	WinNT
#	Creation time:	15. 06. 2019 20:59

#	Modifying user name:	WinNT
#	Modification time:	15. 06. 2019 20:59

#	Program:	/corina/corina34_cracker 3.40 0067  02.08.2006

@<TRIPOS>MOLECULE
ASD05430166
  60   65    0    0    0
SMALL
NO_CHARGES


@<TRIPOS>ATOM
   1 C1            -0.0250     1.3782    -0.0122 C.ar    
   2 C2            -0.0002    -0.0087    -0.0223 C.ar    
   3 C3            -1.1988    -0.7223    -0.0508 C.ar    
   4 C4            -2.3865    -0.0185    -0.0655 C.ar    
   5 C5            -2.3427     1.3797    -0.0510 C.ar    
   6 N6            -1.1799     2.0212    -0.0288 N.ar    
   7 O7            -2.3767     4.1746    -0.0242 O.3     
   8 C8            -3.5628     3.4972    -0.0513 C.2     
   9 C9            -3.5971     2.1473    -0.0652 C.2     
  10 C10           -2.4243     5.5317     0.4283 C.3     
  11 C11           -3.5914     5.8839     1.3598 C.3     
  12 N12           -4.8350     5.4433     0.7241 N.pl3   
  13 C13           -4.8077     4.2949    -0.0645 C.2     
  14 C14           -6.0978     6.1567     0.9061 C.3     
  15 C15           -6.8826     6.0947    -0.4089 C.3     
  16 O16           -6.9979     4.7434    -0.8435 O.3     
  17 N17           -5.8264     3.9628    -0.7863 N.2     
  18 C18           -6.8959     5.5032     2.0047 C.ar    
  19 C19           -7.5945     6.2822     2.9077 C.ar    
  20 C20           -6.9334     4.1253     2.1051 C.ar    
  21 C21           -7.6668     3.5237     3.1139 C.ar    
  22 C22           -8.3623     4.3030     4.0222 C.ar    
  23 C23           -8.3283     5.6828     3.9176 C.ar    
  24 C24           -1.0902     6.2375     0.6782 C.3     
  25 C25           -1.9411     6.6161    -0.5355 C.3     
  26 F26           -9.0065     6.4447     4.8035 F       
  27 F27           -7.7040     2.1768     3.2112 F       
  28 C28            1.2494     2.1826     0.0114 C.3     
  29 C29            2.4089     1.3336     0.5314 C.3     
  30 C30            2.4594     0.0217    -0.2624 C.3     
  31 N31            1.2121    -0.7094     0.0007 N.am    
  32 C32            1.2345    -2.0318     0.2598 C.2     
  33 O33            0.2133    -2.6043     0.5884 O.2     
  34 N34            2.3887    -2.7197     0.1547 N.am    
  35 C35            2.4382    -4.1312     0.5438 C.3     
  36 H36           -1.1976    -1.8023    -0.0615 H       
  37 H37           -3.3329    -0.5383    -0.0882 H       
  38 H38           -4.5456     1.6314    -0.0867 H       
  39 H39           -3.4662     5.3739     2.3149 H       
  40 H40           -3.6220     6.9618     1.5192 H       
  41 H41           -5.8979     7.1963     1.1655 H       
  42 H42           -7.8780     6.5118    -0.2562 H       
  43 H43           -6.3612     6.6761    -1.1693 H       
  44 H44           -7.5678     7.3587     2.8258 H       
  45 H45           -6.3907     3.5175     1.3962 H       
  46 H46           -8.9346     3.8347     4.8093 H       
  47 H47           -1.0440     6.9494     1.5023 H       
  48 H48           -0.1781     5.6691     0.4960 H       
  49 H49           -1.5887     6.2969    -1.5164 H       
  50 H50           -2.4546     7.5772    -0.5101 H       
  51 H51            1.4781     2.5240    -0.9981 H       
  52 H52            1.1169     3.0474     0.6616 H       
  53 H53            3.3455     1.8757     0.4007 H       
  54 H54            2.2560     1.1152     1.5883 H       
  55 H55            2.5433     0.2375    -1.3275 H       
  56 H56            3.3123    -0.5741     0.0628 H       
  57 H57            3.1866    -2.2802    -0.1785 H       
  58 H58            2.1689    -4.2279     1.5955 H       
  59 H59            1.7359    -4.7007    -0.0649 H       
  60 H60            3.4467    -4.5153     0.3902 H       
@<TRIPOS>BOND
   1    1    2 ar
   2    1   28 1
   3    1    6 ar
   4    2    3 ar
   5    2   31 1
   6    3    4 ar
   7    3   36 1
   8    4    5 ar
   9    4   37 1
  10    5    6 ar
  11    5    9 1
  12    7    8 1
  13    7   10 1
  14    8    9 2
  15    8   13 1
  16    9   38 1
  17   10   11 1
  18   10   24 1
  19   10   25 1
  20   11   12 1
  21   11   39 1
  22   11   40 1
  23   12   13 1
  24   12   14 1
  25   13   17 2
  26   14   15 1
  27   14   18 1
  28   14   41 1
  29   15   16 1
  30   15   42 1
  31   15   43 1
  32   16   17 1
  33   18   19 ar
  34   18   20 ar
  35   19   23 ar
  36   19   44 1
  37   20   21 ar
  38   20   45 1
  39   21   22 ar
  40   21   27 1
  41   22   23 ar
  42   22   46 1
  43   23   26 1
  44   24   25 1
  45   24   47 1
  46   24   48 1
  47   25   49 1
  48   25   50 1
  49   28   29 1
  50   28   51 1
  51   28   52 1
  52   29   30 1
  53   29   53 1
  54   29   54 1
  55   30   31 1
  56   30   55 1
  57   30   56 1
  58   31   32 am
  59   32   33 2
  60   32   34 am
  61   34   35 1
  62   34   57 1
  63   35   58 1
  64   35   59 1
  65   35   60 1

#	End of record

