#	Name: ASD01122023
#	Creating user name:	WinNT
#	Creation time:	15. 06. 2019 18:59

#	Modifying user name:	WinNT
#	Modification time:	15. 06. 2019 18:59

#	Program:	/corina/corina34_cracker 3.40 0067  02.08.2006

@<TRIPOS>MOLECULE
ASD01122023
  66   67    0    0    0
SMALL
NO_CHARGES


@<TRIPOS>ATOM
   1 S1             0.3795     2.3896     0.7015 S.3     
   2 C2             0.2049     0.6531     0.4597 C.2     
   3 C3             1.4184     0.1412     0.1806 C.2     
   4 N4             2.4160     1.0259     0.1545 N.2     
   5 C5             2.1090     2.2621     0.3975 C.2     
   6 N6             3.0039     3.3194     0.4151 N.pl3   
   7 C7            -1.0821    -0.1256     0.5499 C.3     
   8 C8            -1.7961    -0.0891    -0.8028 C.3     
   9 C9            -3.0245    -1.0001    -0.7558 C.3     
  10 C10           -2.2355     1.3441    -1.1091 C.3     
  11 C11            1.6299    -1.2984    -0.0779 C.2     
  12 C12            2.4475    -1.8269    -1.0271 C.2     
  13 C13            2.3426    -3.2290    -0.9186 C.2     
  14 C14            1.4759    -3.4837     0.0801 C.2     
  15 O15            1.0507    -2.3146     0.5895 O.3     
  16 P16            0.9705    -5.1308     0.6475 P.3     
  17 N17            0.4972    -5.0478     2.2605 N.3     
  18 O18           -0.1627    -5.6098    -0.1751 O.2     
  19 N19            2.2636    -6.1974     0.4965 N.3     
  20 C20            2.5882    -6.4346    -0.9164 C.3     
  21 C21            4.0806    -6.5746    -1.0724 C.2     
  22 O22            4.8000    -6.4859    -0.1057 O.2     
  23 O23            4.6106    -6.7978    -2.2852 O.3     
  24 C24            0.0803    -6.3666     2.7553 C.3     
  25 C25            0.4795    -6.5097     4.2014 C.2     
  26 O26            0.1984    -7.6413     4.8664 O.3     
  27 O27            1.0525    -5.6059     4.7623 O.2     
  28 C28            1.9034    -7.7188    -1.3884 C.3     
  29 C29           -1.4386    -6.5016     2.6298 C.3     
  30 C30            0.6125    -7.7092     6.2565 C.3     
  31 C31            0.2094    -9.0636     6.8431 C.3     
  32 C32            6.0553    -6.9220    -2.3605 C.3     
  33 C33            6.4708    -7.1720    -3.8117 C.3     
  34 H34            3.9442     3.1620     0.2365 H       
  35 H35            2.6902     4.2172     0.6061 H       
  36 H36           -0.8633    -1.1593     0.8175 H       
  37 H37           -1.7232     0.3189     1.3112 H       
  38 H38           -1.1167    -0.4352    -1.5817 H       
  39 H39           -3.7039    -0.6540     0.0231 H       
  40 H40           -3.5332    -0.9741    -1.7195 H       
  41 H41           -2.7115    -2.0211    -0.5376 H       
  42 H42           -1.3555     1.9743    -1.2375 H       
  43 H43           -2.8269     1.3550    -2.0246 H       
  44 H44           -2.8371     1.7240    -0.2833 H       
  45 H45            3.0591    -1.2788    -1.7285 H       
  46 H46            2.8595    -3.9602    -1.5223 H       
  47 H47            1.2327    -4.6624     2.8338 H       
  48 H48            3.0701    -5.8617     1.0014 H       
  49 H49            2.2375    -5.5944    -1.5157 H       
  50 H50            0.5642    -7.1455     2.1660 H       
  51 H51            0.8219    -7.5856    -1.3595 H       
  52 H52            2.2147    -7.9426    -2.4087 H       
  53 H53            2.1857    -8.5429    -0.7333 H       
  54 H54           -1.7273    -6.3981     1.5838 H       
  55 H55           -1.7479    -7.4802     2.9970 H       
  56 H56           -1.9225    -5.7228     3.2191 H       
  57 H57            1.6946    -7.5936     6.3193 H       
  58 H58            0.1286    -6.9110     6.8192 H       
  59 H59           -0.8726    -9.1792     6.7803 H       
  60 H60            0.6934    -9.8618     6.2804 H       
  61 H61            0.5203    -9.1146     7.8866 H       
  62 H62            6.5182    -6.0020    -2.0034 H       
  63 H63            6.3810    -7.7571    -1.7403 H       
  64 H64            7.5553    -7.2652    -3.8682 H       
  65 H65            6.0079    -8.0919    -4.1688 H       
  66 H66            6.1451    -6.3369    -4.4318 H       
@<TRIPOS>BOND
   1    1    2 1
   2    1    5 1
   3    2    3 2
   4    2    7 1
   5    3    4 1
   6    3   11 1
   7    4    5 2
   8    5    6 1
   9    6   34 1
  10    6   35 1
  11    7    8 1
  12    7   36 1
  13    7   37 1
  14    8    9 1
  15    8   10 1
  16    8   38 1
  17    9   39 1
  18    9   40 1
  19    9   41 1
  20   10   42 1
  21   10   43 1
  22   10   44 1
  23   11   12 2
  24   11   15 1
  25   12   13 1
  26   12   45 1
  27   13   14 2
  28   13   46 1
  29   14   15 1
  30   14   16 1
  31   16   17 1
  32   16   18 2
  33   16   19 1
  34   17   24 1
  35   17   47 1
  36   19   20 1
  37   19   48 1
  38   20   21 1
  39   20   28 1
  40   20   49 1
  41   21   22 2
  42   21   23 1
  43   23   32 1
  44   24   25 1
  45   24   29 1
  46   24   50 1
  47   25   26 1
  48   25   27 2
  49   26   30 1
  50   28   51 1
  51   28   52 1
  52   28   53 1
  53   29   54 1
  54   29   55 1
  55   29   56 1
  56   30   31 1
  57   30   57 1
  58   30   58 1
  59   31   59 1
  60   31   60 1
  61   31   61 1
  62   32   33 1
  63   32   62 1
  64   32   63 1
  65   33   64 1
  66   33   65 1
  67   33   66 1

#	End of record

