#	Name: ASD01912592
#	Creating user name:	WinNT
#	Creation time:	15. 06. 2019 20:00

#	Modifying user name:	WinNT
#	Modification time:	15. 06. 2019 20:00

#	Program:	/corina/corina34_cracker 3.40 0067  02.08.2006

@<TRIPOS>MOLECULE
ASD01912592
  38   40    0    0    0
SMALL
NO_CHARGES


@<TRIPOS>ATOM
   1 C1            -0.0574     1.4286    -0.0293 C.ar    
   2 C2            -0.0540    -0.0034    -0.0392 C.1     
   3 C3            -0.0511    -1.1773    -0.0474 C.1     
   4 C4            -0.0477    -2.6093    -0.0573 C.ar    
   5 C5            -1.1556    -3.3109    -0.5418 C.ar    
   6 C6             1.0654    -3.3117     0.4119 C.ar    
   7 C7             1.0612    -4.6932     0.3986 C.ar    
   8 C8            -0.0433    -5.3806    -0.0790 C.ar    
   9 C9            -1.1461    -4.6897    -0.5493 C.ar    
  10 N10            1.0037     2.0857     0.4346 N.ar    
  11 C11            1.0426     3.3993     0.4615 C.ar    
  12 C12           -0.0401     4.1527    -0.0006 C.ar    
  13 C13           -1.1725     3.4895    -0.4954 C.ar    
  14 C14           -1.1733     2.1203    -0.5125 C.ar    
  15 C15            0.0074     5.6277     0.0323 C.2     
  16 N16           -1.0291     6.3242     0.5392 N.am    
  17 O17            0.9816     6.2143    -0.3980 O.2     
  18 C18           -2.2523     5.6416     0.9899 C.3     
  19 C19           -2.5859     6.1307     2.4039 C.3     
  20 O20           -2.6165     7.5600     2.4125 O.3     
  21 C21           -1.3668     8.1742     2.0889 C.3     
  22 C22           -0.9686     7.7892     0.6640 C.3     
  23 F23            2.1359    -5.3752     0.8516 F       
  24 H24           -2.0175    -2.7738    -0.9094 H       
  25 H25            1.9265    -2.7763     0.7835 H       
  26 H26           -0.0416    -6.4606    -0.0881 H       
  27 H27           -2.0034    -5.2321    -0.9200 H       
  28 H28            1.9190     3.9010     0.8444 H       
  29 H29           -2.0235     4.0464    -0.8589 H       
  30 H30           -2.0299     1.5798    -0.8873 H       
  31 H31           -3.0750     5.8793     0.3156 H       
  32 H32           -2.0877     4.5642     1.0035 H       
  33 H33           -3.5602     5.7439     2.7026 H       
  34 H34           -1.8246     5.7787     3.1000 H       
  35 H35           -1.4640     9.2574     2.1610 H       
  36 H36           -0.6010     7.8296     2.7839 H       
  37 H37            0.0448     8.1350     0.4599 H       
  38 H38           -1.6613     8.2415    -0.0457 H       
@<TRIPOS>BOND
   1    1    2 1
   2    1   10 ar
   3    1   14 ar
   4    2    3 3
   5    3    4 1
   6    4    5 ar
   7    4    6 ar
   8    5    9 ar
   9    5   24 1
  10    6    7 ar
  11    6   25 1
  12    7    8 ar
  13    7   23 1
  14    8    9 ar
  15    8   26 1
  16    9   27 1
  17   10   11 ar
  18   11   12 ar
  19   11   28 1
  20   12   13 ar
  21   12   15 1
  22   13   14 ar
  23   13   29 1
  24   14   30 1
  25   15   16 am
  26   15   17 2
  27   16   18 1
  28   16   22 1
  29   18   19 1
  30   18   31 1
  31   18   32 1
  32   19   20 1
  33   19   33 1
  34   19   34 1
  35   20   21 1
  36   21   22 1
  37   21   35 1
  38   21   36 1
  39   22   37 1
  40   22   38 1

#	End of record

