#	Name: ASD01871008
#	Creating user name:	WinNT
#	Creation time:	15. 06. 2019 19:39

#	Modifying user name:	WinNT
#	Modification time:	15. 06. 2019 19:39

#	Program:	/corina/corina34_cracker 3.40 0067  02.08.2006

@<TRIPOS>MOLECULE
ASD01871008
  35   37    0    0    0
SMALL
NO_CHARGES


@<TRIPOS>ATOM
   1 C1            -0.0167     1.3802     0.0096 C.ar    
   2 C2             0.0021    -0.0041     0.0020 C.ar    
   3 C3             1.2077    -0.6845    -0.0127 C.ar    
   4 C4             2.3972     0.0149    -0.0198 C.ar    
   5 C5             2.3836     1.4083    -0.0126 C.ar    
   6 C6             1.1675     2.0886     0.0021 C.ar    
   7 C7             3.6598     2.1652    -0.0197 C.2     
   8 C8             3.7884     3.3717    -0.6914 C.2     
   9 C9             5.0173     3.9385    -0.6022 C.2     
  10 S10            5.9558     2.8654     0.3600 S.3     
  11 N11            4.7207     1.7314     0.6120 N.2     
  12 C12            2.6546     4.0017    -1.4587 C.3     
  13 N13            5.4335     5.1412    -1.1723 N.am    
  14 C14            6.6976     5.5716    -0.9899 C.2     
  15 C15            7.1474     6.8712    -1.6060 C.3     
  16 O16            7.4732     4.9129    -0.3297 O.2     
  17 C17            8.1699     6.7980    -2.7418 C.3     
  18 C18            8.5941     7.3054    -1.3621 C.3     
  19 C19            8.8665     8.8036    -1.2134 C.3     
  20 Cl20          -1.4911    -0.8896     0.0115 Cl      
  21 H21           -0.9597     1.9065     0.0169 H       
  22 H22            1.2172    -1.7644    -0.0182 H       
  23 H23            3.3372    -0.5168    -0.0305 H       
  24 H24            1.1519     3.1685     0.0074 H       
  25 H25            2.0875     4.6562    -0.7969 H       
  26 H26            3.0563     4.5834    -2.2883 H       
  27 H27            1.9999     3.2209    -1.8459 H       
  28 H28            4.8132     5.6679    -1.7003 H       
  29 H29            6.3895     7.6527    -1.6608 H       
  30 H30            8.5173     5.8098    -3.0433 H       
  31 H31            8.0850     7.5316    -3.5435 H       
  32 H32            9.2205     6.6510    -0.7559 H       
  33 H33            8.5603     9.3206    -2.1228 H       
  34 H34            8.3019     9.1932    -0.3663 H       
  35 H35            9.9314     8.9642    -1.0451 H       
@<TRIPOS>BOND
   1    1    2 ar
   2    1    6 ar
   3    1   21 1
   4    2    3 ar
   5    2   20 1
   6    3    4 ar
   7    3   22 1
   8    4    5 ar
   9    4   23 1
  10    5    6 ar
  11    5    7 1
  12    6   24 1
  13    7    8 1
  14    7   11 2
  15    8    9 2
  16    8   12 1
  17    9   10 1
  18    9   13 1
  19   10   11 1
  20   12   25 1
  21   12   26 1
  22   12   27 1
  23   13   14 am
  24   13   28 1
  25   14   16 2
  26   14   15 1
  27   15   17 1
  28   15   18 1
  29   15   29 1
  30   17   18 1
  31   17   30 1
  32   17   31 1
  33   18   19 1
  34   18   32 1
  35   19   33 1
  36   19   34 1
  37   19   35 1

#	End of record

