#	Name: ASD00069296
#	Creating user name:	WinNT
#	Creation time:	15. 06. 2019 18:29

#	Modifying user name:	WinNT
#	Modification time:	15. 06. 2019 18:29

#	Program:	/corina/corina34_cracker 3.40 0067  02.08.2006

@<TRIPOS>MOLECULE
ASD00069296
  56   58    0    0    0
SMALL
NO_CHARGES


@<TRIPOS>ATOM
   1 C1            -0.0162     1.3436     0.0094 C.2     
   2 N2             0.0021    -0.0041     0.0020 N.am    
   3 O3             1.0277     1.9654     0.0028 O.2     
   4 O4            -1.1912     2.0008     0.0186 O.3     
   5 C5             2.0658    -0.3320    -1.2688 C.3     
   6 C6             1.2806    -0.7192    -0.0140 C.3     
   7 C7             2.0897    -0.3454     1.2296 C.3     
   8 N8            -0.8561    -4.4211    -0.0094 N.3     
   9 C9            -0.0733    -4.1143     1.1945 C.3     
  10 C10            0.2356    -2.6159     1.2356 C.3     
  11 C11            1.0214    -2.2271    -0.0197 C.3     
  12 C12            0.2049    -2.6014    -1.2597 C.3     
  13 C13           -0.1030    -4.1001    -1.2285 C.3     
  14 C14           -1.2692    -5.7609    -0.0122 C.ar    
  15 C15           -2.6274    -6.0737    -0.0416 C.ar    
  16 C16           -3.0299    -7.4009    -0.0447 C.ar    
  17 C17           -2.0855    -8.4106    -0.0181 C.ar    
  18 C18           -0.7384    -8.1021     0.0116 C.ar    
  19 C19           -0.3270    -6.7799     0.0086 C.ar    
  20 F20            0.9905    -6.4819     0.0316 F       
  21 N21           -3.5829    -5.0504    -0.0676 N.pl3   
  22 C22           -1.1349     3.4517     0.0262 C.3     
  23 C23           -2.5351     4.0087     0.0359 C.ar    
  24 C24           -3.1717     4.2577     1.2374 C.ar    
  25 C25           -4.4561     4.7686     1.2463 C.ar    
  26 C26           -5.1038     5.0309     0.0536 C.ar    
  27 C27           -4.4670     4.7828    -1.1480 C.ar    
  28 C28           -3.1809     4.2760    -1.1568 C.ar    
  29 H29           -0.8313    -0.5005     0.0073 H       
  30 H30            2.2504     0.7422    -1.2648 H       
  31 H31            3.0170    -0.8641    -1.2807 H       
  32 H32            1.4894    -0.5983    -2.1547 H       
  33 H33            1.5302    -0.6213     2.1235 H       
  34 H34            3.0409    -0.8775     1.2176 H       
  35 H35            2.2743     0.7288     1.2336 H       
  36 H36           -0.6451    -4.3916     2.0800 H       
  37 H37            0.8600    -4.6770     1.1741 H       
  38 H38           -0.6971    -2.0529     1.2700 H       
  39 H39            0.8299    -2.3911     2.1213 H       
  40 H40            1.9721    -2.7600    -0.0339 H       
  41 H41           -0.7283    -2.0381    -1.2646 H       
  42 H42            0.7774    -2.3661    -2.1570 H       
  43 H43            0.8304    -4.6629    -1.2376 H       
  44 H44           -0.6965    -4.3672    -2.1029 H       
  45 H45           -4.0815    -7.6459    -0.0675 H       
  46 H46           -2.4014    -9.4433    -0.0202 H       
  47 H47           -0.0047    -8.8944     0.0330 H       
  48 H48           -3.3000    -4.1225    -0.0651 H       
  49 H49           -4.5276    -5.2694    -0.0881 H       
  50 H50           -0.6031     3.7900     0.9155 H       
  51 H51           -0.6116     3.7997    -0.8644 H       
  52 H52           -2.6656     4.0527     2.1692 H       
  53 H53           -4.9537     4.9624     2.1850 H       
  54 H54           -6.1076     5.4294     0.0605 H       
  55 H55           -4.9732     4.9875    -2.0798 H       
  56 H56           -2.6820     4.0856    -2.0955 H       
@<TRIPOS>BOND
   1    1    2 am
   2    1    3 2
   3    1    4 1
   4    2    6 1
   5    2   29 1
   6    4   22 1
   7    5    6 1
   8    5   30 1
   9    5   31 1
  10    5   32 1
  11    6    7 1
  12    6   11 1
  13    7   33 1
  14    7   34 1
  15    7   35 1
  16    8    9 1
  17    8   13 1
  18    8   14 1
  19    9   10 1
  20    9   36 1
  21    9   37 1
  22   10   11 1
  23   10   38 1
  24   10   39 1
  25   11   12 1
  26   11   40 1
  27   12   13 1
  28   12   41 1
  29   12   42 1
  30   13   43 1
  31   13   44 1
  32   14   15 ar
  33   14   19 ar
  34   15   16 ar
  35   15   21 1
  36   16   17 ar
  37   16   45 1
  38   17   18 ar
  39   17   46 1
  40   18   19 ar
  41   18   47 1
  42   19   20 1
  43   21   48 1
  44   21   49 1
  45   22   23 1
  46   22   50 1
  47   22   51 1
  48   23   24 ar
  49   23   28 ar
  50   24   25 ar
  51   24   52 1
  52   25   26 ar
  53   25   53 1
  54   26   27 ar
  55   26   54 1
  56   27   28 ar
  57   27   55 1
  58   28   56 1

#	End of record

