#	Name: ASD01816842
#	Creating user name:	WinNT
#	Creation time:	15. 06. 2019 19:36

#	Modifying user name:	WinNT
#	Modification time:	15. 06. 2019 19:36

#	Program:	/corina/corina34_cracker 3.40 0067  02.08.2006

@<TRIPOS>MOLECULE
ASD01816842
  60   64    0    0    0
SMALL
NO_CHARGES


@<TRIPOS>ATOM
   1 C1            -0.0168     1.3897     0.0097 C.ar    
   2 C2             0.0021    -0.0041     0.0020 C.ar    
   3 C3             1.1796    -0.6877    -0.0129 C.ar    
   4 C4             2.3927     0.0187    -0.0207 C.ar    
   5 C5             2.3768     1.4381    -0.0130 C.ar    
   6 C6             1.1385     2.1078     0.0025 C.ar    
   7 C7             3.6297    -0.6529    -0.0357 C.ar    
   8 C8             4.7711     0.0956    -0.0422 C.ar    
   9 C9             4.6871     1.4959    -0.0340 C.ar    
  10 N10            3.5238     2.1168    -0.0199 N.ar    
  11 C11            5.9353     2.2963    -0.0412 C.2     
  12 N12            5.8725     3.6426    -0.0335 N.am    
  13 O13            7.0146     1.7386    -0.0541 O.2     
  14 C14            7.1057     4.4335    -0.0406 C.3     
  15 C15            7.5896     4.6106    -1.4812 C.3     
  16 C16            6.8349     5.8060     0.5789 C.3     
  17 C17            8.1228     6.6319     0.5714 C.3     
  18 C18            8.6067     6.8091    -0.8692 C.3     
  19 C19            8.8775     5.4366    -1.4887 C.3     
  20 O20            6.3829     5.6405     1.9244 O.3     
  21 C21            3.6922    -2.1586    -0.0438 C.3     
  22 C22            3.5760    -2.6586    -1.4607 C.ar    
  23 C23            4.7162    -2.8369    -2.2238 C.ar    
  24 C24            2.3300    -2.9427    -1.9908 C.ar    
  25 C25            2.2167    -3.4011    -3.2871 C.ar    
  26 C26            3.3626    -3.5781    -4.0640 C.ar    
  27 C27            4.6168    -3.2943    -3.5216 C.ar    
  28 C28            3.2487    -4.0696    -5.4537 C.2     
  29 C29            4.2727    -4.2922    -6.3335 C.2     
  30 O30            2.1180    -4.3936    -6.1061 O.3     
  31 N31            2.3488    -4.7643    -7.2335 N.2     
  32 C32            3.6240    -4.7491    -7.4991 C.2     
  33 C33            4.2782    -5.1429    -8.7984 C.3     
  34 H34           -0.9643     1.9080     0.0170 H       
  35 H35           -0.9302    -0.5493     0.0084 H       
  36 H36            1.1803    -1.7677    -0.0184 H       
  37 H37            1.1059     3.1873     0.0090 H       
  38 H38            5.7363    -0.3889    -0.0533 H       
  39 H39            5.0108     4.0879    -0.0231 H       
  40 H40            7.8713     3.9179     0.5391 H       
  41 H41            7.7825     3.6328    -1.9225 H       
  42 H42            6.8239     5.1262    -2.0609 H       
  43 H43            6.0692     6.3216    -0.0008 H       
  44 H44            7.9299     7.6098     1.0127 H       
  45 H45            8.8884     6.1164     1.1511 H       
  46 H46            7.8410     7.3247    -1.4489 H       
  47 H47            9.5242     7.3975    -0.8745 H       
  48 H48            9.6431     4.9210    -0.9090 H       
  49 H49            9.2222     5.5628    -2.5150 H       
  50 H50            6.1915     6.4717     2.3800 H       
  51 H51            4.6418    -2.4851     0.3800 H       
  52 H52            2.8717    -2.5595     0.5513 H       
  53 H53            5.6862    -2.6173    -1.8027 H       
  54 H54            1.4441    -2.8055    -1.3885 H       
  55 H55            1.2436    -3.6228    -3.6997 H       
  56 H56            5.5073    -3.4293    -4.1176 H       
  57 H57            5.3312    -4.1506    -6.1727 H       
  58 H58            4.3543    -4.2696    -9.4462 H       
  59 H59            5.2753    -5.5353    -8.5988 H       
  60 H60            3.6781    -5.9086    -9.2899 H       
@<TRIPOS>BOND
   1    1    2 ar
   2    1    6 ar
   3    1   34 1
   4    2    3 ar
   5    2   35 1
   6    3    4 ar
   7    3   36 1
   8    4    5 ar
   9    4    7 ar
  10    5    6 ar
  11    5   10 ar
  12    6   37 1
  13    7    8 ar
  14    7   21 1
  15    8    9 ar
  16    8   38 1
  17    9   10 ar
  18    9   11 1
  19   11   12 am
  20   11   13 2
  21   12   14 1
  22   12   39 1
  23   14   15 1
  24   14   16 1
  25   14   40 1
  26   15   19 1
  27   15   41 1
  28   15   42 1
  29   16   17 1
  30   16   20 1
  31   16   43 1
  32   17   18 1
  33   17   44 1
  34   17   45 1
  35   18   19 1
  36   18   46 1
  37   18   47 1
  38   19   48 1
  39   19   49 1
  40   20   50 1
  41   21   22 1
  42   21   51 1
  43   21   52 1
  44   22   23 ar
  45   22   24 ar
  46   23   27 ar
  47   23   53 1
  48   24   25 ar
  49   24   54 1
  50   25   26 ar
  51   25   55 1
  52   26   27 ar
  53   26   28 1
  54   27   56 1
  55   28   29 2
  56   28   30 1
  57   29   32 1
  58   29   57 1
  59   30   31 1
  60   31   32 2
  61   32   33 1
  62   33   58 1
  63   33   59 1
  64   33   60 1

#	End of record

