#	Name: ASD01912094
#	Creating user name:	WinNT
#	Creation time:	15. 06. 2019 19:59

#	Modifying user name:	WinNT
#	Modification time:	15. 06. 2019 19:59

#	Program:	/corina/corina34_cracker 3.40 0067  02.08.2006

@<TRIPOS>MOLECULE
ASD01912094
  59   63    0    0    0
SMALL
NO_CHARGES


@<TRIPOS>ATOM
   1 N1             0.0092     1.3345    -0.2148 N.2     
   2 C2             0.0002     0.0033    -0.0849 C.2     
   3 N3             1.2253    -0.4106     0.1583 N.2     
   4 N4             2.0446     0.7297     0.1810 N.pl3   
   5 C5             1.2349     1.7875    -0.0571 C.2     
   6 C6             1.6541     3.2050    -0.1283 C.ar    
   7 C7             0.7143     4.2224     0.0375 C.ar    
   8 C8             1.1114     5.5421    -0.0300 C.ar    
   9 C9             2.4384     5.8572    -0.2615 C.ar    
  10 C10            3.3752     4.8527    -0.4267 C.ar    
  11 C11            2.9917     3.5292    -0.3557 C.ar    
  12 C12           -1.1974    -0.8658    -0.1963 C.ar    
  13 C13           -2.4457    -0.3042    -0.4579 C.ar    
  14 C14           -3.5570    -1.1144    -0.5610 C.ar    
  15 C15           -3.4330    -2.4882    -0.4039 C.ar    
  16 C16           -2.1907    -3.0505    -0.1432 C.ar    
  17 C17           -1.0750    -2.2459    -0.0453 C.ar    
  18 C18            3.4900     0.7668     0.4167 C.3     
  19 C19            4.2170     0.5907    -0.8916 C.2     
  20 N20            5.5645     0.5916    -0.9191 N.am    
  21 O21            3.5895     0.4481    -1.9196 O.2     
  22 C22            6.2938     0.4212    -2.1850 C.3     
  23 C23            7.3222     1.5503    -2.3100 C.3     
  24 N24            8.1644     1.5767    -1.1067 N.3     
  25 C25            7.3712     1.8785     0.0923 C.3     
  26 C26            6.3447     0.7690     0.3150 C.3     
  27 C27            9.2072     2.4754    -1.2507 C.ar    
  28 N28           10.0701     2.6293    -0.2572 N.ar    
  29 C29           11.0777     3.4797    -0.3625 C.ar    
  30 C30           11.2241     4.2135    -1.5293 C.ar    
  31 C31           10.3036     4.0278    -2.5487 C.ar    
  32 N32            9.3218     3.1572    -2.3809 N.ar    
  33 O33           -4.5297    -3.2840    -0.5050 O.3     
  34 C34           -4.3303    -4.6884    -0.3325 C.3     
  35 F35           -3.4365    -5.1552    -1.3023 F       
  36 F36           -3.8053    -4.9319     0.9412 F       
  37 H37           -0.3220     3.9777     0.2179 H       
  38 H38            0.3847     6.3307     0.0978 H       
  39 H39            2.7443     6.8916    -0.3138 H       
  40 H40            4.4097     5.1050    -0.6072 H       
  41 H41            3.7240     2.7459    -0.4845 H       
  42 H42           -2.5429     0.7645    -0.5795 H       
  43 H43           -4.5246    -0.6798    -0.7637 H       
  44 H44           -2.0973    -4.1195    -0.0211 H       
  45 H45           -0.1088    -2.6838     0.1575 H       
  46 H46            3.7618     1.7262     0.8571 H       
  47 H47            3.7679    -0.0374     1.0979 H       
  48 H48            6.8049    -0.5415    -2.1864 H       
  49 H49            5.5944     0.4688    -3.0197 H       
  50 H50            7.9463     1.3784    -3.1870 H       
  51 H51            6.8046     2.5041    -2.4127 H       
  52 H52            8.0307     1.9446     0.9576 H       
  53 H53            6.8529     2.8277    -0.0438 H       
  54 H54            5.6800     1.0440     1.1339 H       
  55 H55            6.8582    -0.1624     0.5535 H       
  56 H56           11.7777     3.6012     0.4509 H       
  57 H57           12.0376     4.9149    -1.6415 H       
  58 H58           10.3891     4.5842    -3.4704 H       
  59 H59           -5.2836    -5.2064    -0.4377 H       
@<TRIPOS>BOND
   1    1    2 1
   2    1    5 2
   3    2    3 2
   4    2   12 1
   5    3    4 1
   6    4    5 1
   7    4   18 1
   8    5    6 1
   9    6    7 ar
  10    6   11 ar
  11    7    8 ar
  12    7   37 1
  13    8    9 ar
  14    8   38 1
  15    9   10 ar
  16    9   39 1
  17   10   11 ar
  18   10   40 1
  19   11   41 1
  20   12   13 ar
  21   12   17 ar
  22   13   14 ar
  23   13   42 1
  24   14   15 ar
  25   14   43 1
  26   15   16 ar
  27   15   33 1
  28   16   17 ar
  29   16   44 1
  30   17   45 1
  31   18   19 1
  32   18   46 1
  33   18   47 1
  34   19   20 am
  35   19   21 2
  36   20   22 1
  37   20   26 1
  38   22   23 1
  39   22   48 1
  40   22   49 1
  41   23   24 1
  42   23   50 1
  43   23   51 1
  44   24   25 1
  45   24   27 1
  46   25   26 1
  47   25   52 1
  48   25   53 1
  49   26   54 1
  50   26   55 1
  51   27   28 ar
  52   27   32 ar
  53   28   29 ar
  54   29   30 ar
  55   29   56 1
  56   30   31 ar
  57   30   57 1
  58   31   32 ar
  59   31   58 1
  60   33   34 1
  61   34   35 1
  62   34   36 1
  63   34   59 1

#	End of record

