#	Name: ASD01870705
#	Creating user name:	WinNT
#	Creation time:	15. 06. 2019 19:39

#	Modifying user name:	WinNT
#	Modification time:	15. 06. 2019 19:39

#	Program:	/corina/corina34_cracker 3.40 0067  02.08.2006

@<TRIPOS>MOLECULE
ASD01870705
  41   44    0    0    0
SMALL
NO_CHARGES


@<TRIPOS>ATOM
   1 C1            -0.0169     1.3939     0.0097 C.ar    
   2 C2             0.0021    -0.0041     0.0020 C.ar    
   3 C3             2.4074     0.0226    -0.0210 C.ar    
   4 C4             2.3866     1.4204    -0.0135 C.ar    
   5 C5             1.1650     2.0983     0.0022 C.ar    
   6 C6            -1.0777    -1.0089     0.0064 C.2     
   7 N7            -0.5610    -2.2495    -0.0054 N.am    
   8 C8             0.9029    -2.1515    -0.0186 C.3     
   9 C9             1.2272    -0.6782    -0.0133 C.ar    
  10 C10            3.6545     2.1796    -0.0213 C.2     
  11 O11            4.8993     1.6698    -0.0359 O.3     
  12 N12            5.7391     2.5393    -0.0389 N.2     
  13 C13            5.2013     3.7344    -0.0271 C.2     
  14 C14            3.7950     3.5389    -0.0210 C.2     
  15 C15           -1.3325    -3.4949    -0.0045 C.3     
  16 C16           -2.2022    -3.5551     1.2528 C.3     
  17 C17           -2.2262    -3.5421    -1.2455 C.3     
  18 O18           -2.2657    -0.7515     0.0194 O.2     
  19 C19            5.9194     5.0336    -0.0267 C.ar    
  20 C20            7.3166     5.0724    -0.0402 C.ar    
  21 C21            7.9391     6.3079    -0.0391 C.ar    
  22 C22            7.1650     7.4561    -0.0248 C.ar    
  23 N23            5.8470     7.3870    -0.0118 N.ar    
  24 C24            5.2116     6.2327    -0.0185 C.ar    
  25 Cl25           7.9397     9.0097    -0.0233 Cl      
  26 H26           -0.9595     1.9210     0.0170 H       
  27 H27            3.3499    -0.5046    -0.0336 H       
  28 H28            1.1484     3.1782     0.0081 H       
  29 H29            1.3183    -2.6297     0.8684 H       
  30 H30            1.3016    -2.6196    -0.9186 H       
  31 H31            3.0181     4.2890    -0.0155 H       
  32 H32           -0.6503    -4.3449    -0.0155 H       
  33 H33           -2.7763    -4.4816     1.2535 H       
  34 H34           -1.5656    -3.5214     2.1369 H       
  35 H35           -2.8844    -2.7050     1.2638 H       
  36 H36           -1.6066    -3.4992    -2.1413 H       
  37 H37           -2.8002    -4.4687    -1.2448 H       
  38 H38           -2.9083    -2.6920    -1.2346 H       
  39 H39            7.8956     4.1608    -0.0508 H       
  40 H40            9.0169     6.3762    -0.0489 H       
  41 H41            4.1317     6.2164    -0.0126 H       
@<TRIPOS>BOND
   1    1    2 ar
   2    1    5 ar
   3    1   26 1
   4    2    9 ar
   5    2    6 1
   6    3    4 ar
   7    3    9 ar
   8    3   27 1
   9    4    5 ar
  10    4   10 1
  11    5   28 1
  12    6    7 am
  13    6   18 2
  14    7    8 1
  15    7   15 1
  16    8    9 1
  17    8   29 1
  18    8   30 1
  19   10   11 1
  20   10   14 2
  21   11   12 1
  22   12   13 2
  23   13   14 1
  24   13   19 1
  25   14   31 1
  26   15   16 1
  27   15   17 1
  28   15   32 1
  29   16   33 1
  30   16   34 1
  31   16   35 1
  32   17   36 1
  33   17   37 1
  34   17   38 1
  35   19   20 ar
  36   19   24 ar
  37   20   21 ar
  38   20   39 1
  39   21   22 ar
  40   21   40 1
  41   22   23 ar
  42   22   25 1
  43   23   24 ar
  44   24   41 1

#	End of record

