#	Name: ASD03730840
#	Creating user name:	WinNT
#	Creation time:	15. 06. 2019 20:44

#	Modifying user name:	WinNT
#	Modification time:	15. 06. 2019 20:44

#	Program:	/corina/corina34_cracker 3.40 0067  02.08.2006

@<TRIPOS>MOLECULE
ASD03730840
  70   76    0    0    0
SMALL
NO_CHARGES


@<TRIPOS>ATOM
   1 C1            -0.0434     1.4502    -0.2721 C.2     
   2 C2             0.0044     0.0030     0.0266 C.ar    
   3 C3             1.2278    -0.6690     0.0445 C.ar    
   4 C4             1.2654    -2.0192     0.3244 C.ar    
   5 C5             0.0939    -2.7075     0.5865 C.ar    
   6 C6            -1.1218    -2.0475     0.5703 C.ar    
   7 C7            -1.1728    -0.6959     0.2975 C.ar    
   8 O8             0.9890     2.0764    -0.4117 O.2     
   9 N9            -1.2318     2.0741    -0.3951 N.am    
  10 C10           -1.2791     3.5081    -0.6910 C.3     
  11 C11           -2.7373     3.9630    -0.7778 C.3     
  12 N12           -2.7848     5.4010    -1.0746 N.3     
  13 C13           -4.1523     5.8265    -1.3988 C.3     
  14 C14           -4.1901     7.3481    -1.5588 C.3     
  15 C15           -3.2282     7.7630    -2.6755 C.3     
  16 C16           -1.8202     7.2658    -2.3366 C.3     
  17 C17           -1.8511     5.7466    -2.1540 C.3     
  18 C18            2.5045     0.0787    -0.2417 C.3     
  19 O19            3.1088    -6.9750    -1.4947 O.3     
  20 C20            3.8756    -8.1830    -1.6559 C.3     
  21 O21            5.0481    -7.7512    -2.3713 O.3     
  22 C22            5.2155    -6.4370    -2.0399 C.ar    
  23 C23            4.0224    -5.9601    -1.5018 C.ar    
  24 C24            6.3076    -5.5957    -2.1547 C.ar    
  25 C25            6.2239    -4.2708    -1.7373 C.ar    
  26 C26            5.0242    -3.8037    -1.2091 C.ar    
  27 C27            3.9354    -4.6416    -1.0876 C.ar    
  28 O28            7.1740    -3.2923    -1.7461 O.3     
  29 C29            5.2368    -2.3498    -0.8820 C.3     
  30 C30            6.5337    -2.0072    -1.6278 C.3     
  31 N31            3.6310    -0.8577    -0.2344 N.am    
  32 C32            4.0891    -1.4924    -1.3318 C.2     
  33 C33            5.3593    -2.1085     0.5933 C.ar    
  34 C34            6.2048    -2.5879     1.5688 C.ar    
  35 C35            6.0637    -2.1633     2.8780 C.ar    
  36 C36            5.0711    -1.2572     3.2045 C.ar    
  37 C37            4.2211    -0.7749     2.2311 C.ar    
  38 C38            4.3562    -1.1964     0.9106 C.ar    
  39 O39            3.6589    -1.3905    -2.4612 O.2     
  40 H40            2.2112    -2.5404     0.3386 H       
  41 H41            0.1287    -3.7647     0.8044 H       
  42 H42           -2.0325    -2.5904     0.7757 H       
  43 H43           -2.1221    -0.1809     0.2892 H       
  44 H44           -2.0557     1.5736    -0.2876 H       
  45 H45           -0.7730     4.0595     0.1013 H       
  46 H46           -0.7816     3.6994    -1.6418 H       
  47 H47           -3.2434     3.4116    -1.5702 H       
  48 H48           -3.2348     3.7717     0.1730 H       
  49 H49           -4.4682     5.3555    -2.3296 H       
  50 H50           -4.8255     5.5291    -0.5948 H       
  51 H51           -5.2020     7.6620    -1.8148 H       
  52 H52           -3.8876     7.8199    -0.6239 H       
  53 H53           -3.5528     7.3226    -3.6183 H       
  54 H54           -3.2194     8.8494    -2.7638 H       
  55 H55           -1.1389     7.5210    -3.1482 H       
  56 H56           -1.4804     7.7363    -1.4139 H       
  57 H57           -0.8529     5.3911    -1.8985 H       
  58 H58           -2.1778     5.2760    -3.0813 H       
  59 H59            2.4348     0.5557    -1.2193 H       
  60 H60            2.6593     0.8394     0.5235 H       
  61 H61            4.1496    -8.5951    -0.6848 H       
  62 H62            3.3184    -8.9151    -2.2404 H       
  63 H63            7.2313    -5.9696    -2.5710 H       
  64 H64            3.0126    -4.2684    -0.6687 H       
  65 H65            7.1470    -1.3215    -1.0431 H       
  66 H66            6.3162    -1.5911    -2.6115 H       
  67 H67            6.9791    -3.2956     1.3116 H       
  68 H68            6.7272    -2.5384     3.6431 H       
  69 H69            4.9609    -0.9259     4.2265 H       
  70 H70            3.4482    -0.0679     2.4940 H       
@<TRIPOS>BOND
   1    1    2 1
   2    1    8 2
   3    1    9 am
   4    2    3 ar
   5    2    7 ar
   6    3    4 ar
   7    3   18 1
   8    4    5 ar
   9    4   40 1
  10    5    6 ar
  11    5   41 1
  12    6    7 ar
  13    6   42 1
  14    7   43 1
  15    9   10 1
  16    9   44 1
  17   10   11 1
  18   10   45 1
  19   10   46 1
  20   11   12 1
  21   11   47 1
  22   11   48 1
  23   12   13 1
  24   12   17 1
  25   13   14 1
  26   13   49 1
  27   13   50 1
  28   14   15 1
  29   14   51 1
  30   14   52 1
  31   15   16 1
  32   15   53 1
  33   15   54 1
  34   16   17 1
  35   16   55 1
  36   16   56 1
  37   17   57 1
  38   17   58 1
  39   18   31 1
  40   18   59 1
  41   18   60 1
  42   19   20 1
  43   19   23 1
  44   20   21 1
  45   20   61 1
  46   20   62 1
  47   21   22 1
  48   22   23 ar
  49   22   24 ar
  50   23   27 ar
  51   24   25 ar
  52   24   63 1
  53   25   26 ar
  54   25   28 1
  55   26   27 ar
  56   26   29 1
  57   27   64 1
  58   28   30 1
  59   29   30 1
  60   29   32 1
  61   29   33 1
  62   30   65 1
  63   30   66 1
  64   31   32 am
  65   31   38 1
  66   32   39 2
  67   33   34 ar
  68   33   38 ar
  69   34   35 ar
  70   34   67 1
  71   35   36 ar
  72   35   68 1
  73   36   37 ar
  74   36   69 1
  75   37   38 ar
  76   37   70 1

#	End of record

