#	Name: ASD01912804
#	Creating user name:	WinNT
#	Creation time:	15. 06. 2019 20:00

#	Modifying user name:	WinNT
#	Modification time:	15. 06. 2019 20:00

#	Program:	/corina/corina34_cracker 3.40 0067  02.08.2006

@<TRIPOS>MOLECULE
ASD01912804
  41   44    0    0    0
SMALL
NO_CHARGES


@<TRIPOS>ATOM
   1 C1            -0.0165     1.3669     0.0096 C.2     
   2 N2             0.0021    -0.0041     0.0020 N.pl3   
   3 C3            -1.2021    -0.6918     0.0098 C.2     
   4 C4            -2.3630    -0.0492     0.0243 C.2     
   5 N5            -2.4358     1.3306     0.0325 N.am    
   6 C6            -1.3019     2.0667     0.0309 C.2     
   7 C7             1.3016     1.7836    -0.0008 C.2     
   8 C8             2.0550     0.6111    -0.0143 C.2     
   9 N9             1.2243    -0.4045    -0.0118 N.2     
  10 O10           -1.3490     3.2837     0.0380 O.2     
  11 C11           -3.6839     1.9663     0.0473 C.ar    
  12 C12            3.5595     0.5250    -0.0298 C.3     
  13 O13            4.1121     1.8428    -0.0288 O.3     
  14 C14            5.4650     1.9434    -0.0419 C.ar    
  15 C15            6.0614     3.1976    -0.0416 C.ar    
  16 C16            7.4427     3.2865    -0.0551 C.ar    
  17 C17            8.1815     2.1117    -0.0684 C.ar    
  18 C18            7.5216     0.8987    -0.0679 C.ar    
  19 N19            6.2035     0.8460    -0.0494 N.ar    
  20 C20           -4.3288     2.2891    -1.1475 C.ar    
  21 C21           -4.3016     2.2800     1.2520 C.ar    
  22 C22           -5.5378     2.9091     1.2161 C.ar    
  23 C23           -6.1127     3.2024    -0.0043 C.ar    
  24 N24           -5.5063     2.8884    -1.1343 N.ar    
  25 O25           -3.7415     1.9854    -2.3328 O.3     
  26 C26           -4.4530     2.3422    -3.5196 C.3     
  27 H27           -1.1950    -1.7717     0.0036 H       
  28 H28           -3.2785    -0.6219     0.0296 H       
  29 H29            1.6685     2.7994     0.0006 H       
  30 H30            3.9018    -0.0132     0.8540 H       
  31 H31            3.8839    -0.0043    -0.9258 H       
  32 H32            5.4556     4.0916    -0.0314 H       
  33 H33            7.9343     4.2482    -0.0555 H       
  34 H34            9.2609     2.1459    -0.0795 H       
  35 H35            8.0918    -0.0185    -0.0786 H       
  36 H36           -3.8308     2.0395     2.1937 H       
  37 H37           -6.0454     3.1666     2.1339 H       
  38 H38           -7.0748     3.6921    -0.0352 H       
  39 H39           -4.6104     3.4206    -3.5386 H       
  40 H40           -3.8741     2.0441    -4.3937 H       
  41 H41           -5.4172     1.8339    -3.5318 H       
@<TRIPOS>BOND
   1    1    2 1
   2    1    7 2
   3    1    6 1
   4    2    3 1
   5    2    9 1
   6    3    4 2
   7    3   27 1
   8    4    5 1
   9    4   28 1
  10    5    6 am
  11    5   11 1
  12    6   10 2
  13    7    8 1
  14    7   29 1
  15    8    9 2
  16    8   12 1
  17   11   21 ar
  18   11   20 ar
  19   12   13 1
  20   12   30 1
  21   12   31 1
  22   13   14 1
  23   14   15 ar
  24   14   19 ar
  25   15   16 ar
  26   15   32 1
  27   16   17 ar
  28   16   33 1
  29   17   18 ar
  30   17   34 1
  31   18   19 ar
  32   18   35 1
  33   20   25 1
  34   20   24 ar
  35   21   22 ar
  36   21   36 1
  37   22   23 ar
  38   22   37 1
  39   23   24 ar
  40   23   38 1
  41   25   26 1
  42   26   39 1
  43   26   40 1
  44   26   41 1

#	End of record

