#	Name: ASD04910277
#	Creating user name:	WinNT
#	Creation time:	15. 06. 2019 20:55

#	Modifying user name:	WinNT
#	Modification time:	15. 06. 2019 20:55

#	Program:	/corina/corina34_cracker 3.40 0067  02.08.2006

@<TRIPOS>MOLECULE
ASD04910277
  58   60    0    0    0
SMALL
NO_CHARGES


@<TRIPOS>ATOM
   1 N1            -0.0161     1.3371     0.0094 N.2     
   2 C2             0.0021    -0.0041     0.0020 C.2     
   3 C3             1.2866    -0.4073    -0.0124 C.2     
   4 N4             2.0586     0.7261    -0.0137 N.pl3   
   5 C5             1.2091     1.7865     0.0001 C.2     
   6 C6             3.4575     0.7804    -0.0264 C.ar    
   7 C7            -1.2066    -0.9042     0.0092 C.3     
   8 F8            -2.3664    -0.1283    -0.0907 F       
   9 F9            -1.1392    -1.7840    -1.0764 F       
  10 F10           -1.2361    -1.6358     1.2013 F       
  11 C11            4.0963     2.0137    -0.0259 C.ar    
  12 N12            4.1550    -0.3436    -0.0332 N.ar    
  13 C13            5.4735    -0.3412    -0.0451 C.ar    
  14 C14            6.1807     0.8533    -0.0510 C.ar    
  15 C15            5.4794     2.0573    -0.0385 C.ar    
  16 N16            7.5793     0.8483    -0.0637 N.pl3   
  17 C17            8.3073    -0.4230    -0.0708 C.3     
  18 C18            9.6689    -0.2187    -0.6836 C.ar    
  19 C19            8.4647    -0.9286     1.3646 C.3     
  20 C20            7.0868    -1.2545     1.9444 C.3     
  21 C21            7.2442    -1.7602     3.3799 C.3     
  22 C22           10.1928    -1.1772    -1.5328 C.ar    
  23 C23           10.3871     0.9291    -0.3990 C.ar    
  24 C24           11.6337     1.1227    -0.9573 C.ar    
  25 C25           12.1703     0.1573    -1.8106 C.ar    
  26 C26           11.4386    -0.9963    -2.0970 C.ar    
  27 C27           13.5057     0.3581    -2.4125 C.2     
  28 O28           14.1388     1.3657    -2.1645 O.2     
  29 N29           14.0210    -0.5760    -3.2360 N.am    
  30 C30           15.3443    -0.3770    -3.8324 C.3     
  31 C31           15.6896    -1.5753    -4.7188 C.3     
  32 C32           17.0508    -1.3707    -5.3323 C.2     
  33 O33           17.5641    -2.3010    -6.1525 O.3     
  34 O34           17.6801    -0.3691    -5.0858 O.2     
  35 H35            1.6410    -1.4275    -0.0210 H       
  36 H36            1.4992     2.8268     0.0029 H       
  37 H37            3.5207     2.9274    -0.0162 H       
  38 H38            6.0092    -1.2790    -0.0500 H       
  39 H39            6.0027     3.0020    -0.0430 H       
  40 H40            8.0673     1.6867    -0.0677 H       
  41 H41            7.7520    -1.1563    -0.6556 H       
  42 H42            9.0819    -1.8270     1.3677 H       
  43 H43            8.9412    -0.1584     1.9710 H       
  44 H44            6.4696    -0.3561     1.9413 H       
  45 H45            6.6103    -2.0248     1.3380 H       
  46 H46            7.8614    -2.6586     3.3830 H       
  47 H47            7.7207    -0.9899     3.9863 H       
  48 H48            6.2626    -1.9923     3.7930 H       
  49 H49            9.6253    -2.0690    -1.7541 H       
  50 H50            9.9707     1.6754     0.2615 H       
  51 H51           12.1930     2.0194    -0.7349 H       
  52 H52           11.8484    -1.7473    -2.7563 H       
  53 H53           13.5158    -1.3801    -3.4339 H       
  54 H54           15.3383     0.5311    -4.4352 H       
  55 H55           16.0888    -0.2834    -3.0418 H       
  56 H56           15.6956    -2.4835    -4.1160 H       
  57 H57           14.9451    -1.6690    -5.5094 H       
  58 H58           18.4404    -2.1253    -6.5218 H       
@<TRIPOS>BOND
   1    1    2 1
   2    1    5 2
   3    2    3 2
   4    2    7 1
   5    3    4 1
   6    3   35 1
   7    4    5 1
   8    4    6 1
   9    5   36 1
  10    6   11 ar
  11    6   12 ar
  12    7    8 1
  13    7    9 1
  14    7   10 1
  15   11   15 ar
  16   11   37 1
  17   12   13 ar
  18   13   14 ar
  19   13   38 1
  20   14   15 ar
  21   14   16 1
  22   15   39 1
  23   16   17 1
  24   16   40 1
  25   17   18 1
  26   17   19 1
  27   17   41 1
  28   18   22 ar
  29   18   23 ar
  30   19   20 1
  31   19   42 1
  32   19   43 1
  33   20   21 1
  34   20   44 1
  35   20   45 1
  36   21   46 1
  37   21   47 1
  38   21   48 1
  39   22   26 ar
  40   22   49 1
  41   23   24 ar
  42   23   50 1
  43   24   25 ar
  44   24   51 1
  45   25   26 ar
  46   25   27 1
  47   26   52 1
  48   27   28 2
  49   27   29 am
  50   29   30 1
  51   29   53 1
  52   30   31 1
  53   30   54 1
  54   30   55 1
  55   31   32 1
  56   31   56 1
  57   31   57 1
  58   32   33 1
  59   32   34 2
  60   33   58 1

#	End of record

