#	Name: ASD01840192
#	Creating user name:	WinNT
#	Creation time:	15. 06. 2019 19:37

#	Modifying user name:	WinNT
#	Modification time:	15. 06. 2019 19:37

#	Program:	/corina/corina34_cracker 3.40 0067  02.08.2006

@<TRIPOS>MOLECULE
ASD01840192
  45   48    0    0    0
SMALL
NO_CHARGES


@<TRIPOS>ATOM
   1 C1             0.0343     1.1353     0.5436 C.ar    
   2 C2             0.0922    -0.2556     0.5864 C.ar    
   3 N3             1.2329    -0.9009     0.5406 N.ar    
   4 C4             2.3970    -0.2513     0.4501 C.ar    
   5 C5             2.4103     1.1657     0.4016 C.ar    
   6 C6             1.1872     1.8624     0.4510 C.ar    
   7 C7             1.1511     3.3682     0.4021 C.3     
   8 C8            -1.1905    -1.0400     0.6885 C.3     
   9 C9             3.6147    -0.9559     0.4023 C.ar    
  10 C10            4.7885    -0.2811     0.3111 C.ar    
  11 C11            4.8126     1.1242     0.2628 C.ar    
  12 C12            3.6317     1.8474     0.3075 C.ar    
  13 C13            6.1050     1.8336     0.1640 C.2     
  14 N14            7.2562     1.1340     0.1204 N.am    
  15 O15            6.1300     3.0483     0.1220 O.2     
  16 C16            8.5375     1.8374     0.0224 C.3     
  17 C17            9.7286     1.0352     0.5767 C.3     
  18 C18            9.2144     1.7031    -1.3536 C.3     
  19 N19           10.4769     1.5192    -0.6044 N.3     
  20 C20           11.2439     0.4993    -1.1615 C.ar    
  21 C21           11.6100    -0.6135    -0.4069 C.ar    
  22 C22           12.3714    -1.6033    -0.9969 C.ar    
  23 N23           12.7515    -1.5038    -2.2576 N.ar    
  24 C24           12.4249    -0.4654    -3.0050 C.ar    
  25 C25           11.6612     0.5625    -2.4924 C.ar    
  26 Cl26          12.8349    -2.9955    -0.0692 Cl      
  27 Cl27          11.2371     1.9228    -3.4840 Cl      
  28 H28           -0.9208     1.6381     0.5790 H       
  29 H29            1.0813     3.6965    -0.6350 H       
  30 H30            0.2849     3.7291     0.9566 H       
  31 H31            2.0612     3.7682     0.8492 H       
  32 H32           -1.5606    -1.2632    -0.3121 H       
  33 H33           -1.0052    -1.9714     1.2235 H       
  34 H34           -1.9336    -0.4527     1.2281 H       
  35 H35            3.6148    -2.0353     0.4387 H       
  36 H36            5.7174    -0.8311     0.2755 H       
  37 H37            3.6520     2.9266     0.2702 H       
  38 H38            7.2362     0.1648     0.1539 H       
  39 H39            8.4890     2.8620     0.3911 H       
  40 H40           10.1107     1.4147     1.5244 H       
  41 H41            9.5673    -0.0428     0.5829 H       
  42 H42            8.9027     0.8204    -1.9121 H       
  43 H43            9.1856     2.6161    -1.9483 H       
  44 H44           11.3029    -0.7005     0.6248 H       
  45 H45           12.7561    -0.4225    -4.0320 H       
@<TRIPOS>BOND
   1    1    2 ar
   2    1    6 ar
   3    1   28 1
   4    2    3 ar
   5    2    8 1
   6    3    4 ar
   7    4    5 ar
   8    4    9 ar
   9    5    6 ar
  10    5   12 ar
  11    6    7 1
  12    7   29 1
  13    7   30 1
  14    7   31 1
  15    8   32 1
  16    8   33 1
  17    8   34 1
  18    9   10 ar
  19    9   35 1
  20   10   11 ar
  21   10   36 1
  22   11   12 ar
  23   11   13 1
  24   12   37 1
  25   13   14 am
  26   13   15 2
  27   14   16 1
  28   14   38 1
  29   16   17 1
  30   16   18 1
  31   16   39 1
  32   17   19 1
  33   17   40 1
  34   17   41 1
  35   18   19 1
  36   18   42 1
  37   18   43 1
  38   19   20 1
  39   20   21 ar
  40   20   25 ar
  41   21   22 ar
  42   21   44 1
  43   22   23 ar
  44   22   26 1
  45   23   24 ar
  46   24   25 ar
  47   24   45 1
  48   25   27 1

#	End of record

