#	Name: ASD04882389
#	Creating user name:	WinNT
#	Creation time:	15. 06. 2019 20:54

#	Modifying user name:	WinNT
#	Modification time:	15. 06. 2019 20:54

#	Program:	/corina/corina34_cracker 3.40 0067  02.08.2006

@<TRIPOS>MOLECULE
ASD04882389
  73   77    0    0    0
SMALL
NO_CHARGES


@<TRIPOS>ATOM
   1 N1            -0.0169     1.3967     0.0097 N.am    
   2 C2             0.1113     0.0024    -0.0346 C.ar    
   3 C3            -1.0252    -0.8074     0.0448 C.ar    
   4 C4            -0.8995    -2.1911     0.0005 C.ar    
   5 C5             0.3446    -2.7691    -0.1217 C.ar    
   6 C6             1.4852    -1.9653    -0.2016 C.ar    
   7 C7             1.3611    -0.5736    -0.1625 C.ar    
   8 N8            -2.2850    -0.2272     0.1689 N.3     
   9 C9            -3.1508    -0.6023    -0.9577 C.3     
  10 C10           -2.9071    -0.5882     1.4504 C.3     
  11 C11           -4.2517     0.1310     1.5822 C.3     
  12 N12           -5.1175    -0.2441     0.4556 N.3     
  13 C13           -4.4953     0.1170    -0.8259 C.3     
  14 C14            2.8177    -2.5847    -0.3325 C.2     
  15 O15            3.8095    -1.8846    -0.4019 O.2     
  16 C16            0.9201     2.1781    -0.5629 C.2     
  17 C17            0.7425     3.6323    -0.5937 C.2     
  18 O18            1.9139     1.6758    -1.0547 O.2     
  19 C19           -6.3811     0.3378     0.5801 C.ar    
  20 C20           -6.5095     1.7201     0.6250 C.ar    
  21 C21           -7.5129    -0.4645     0.6535 C.ar    
  22 C22           -8.7607     0.1140     0.7765 C.ar    
  23 C23           -8.8845     1.4906     0.8263 C.ar    
  24 C24           -7.7606     2.2922     0.7482 C.ar    
  25 C25            1.6100     4.5355    -1.1395 C.2     
  26 O26           -0.3096     4.3134    -0.0928 O.3     
  27 C27           -0.1302     5.6244    -0.3016 C.2     
  28 C28            1.0456     5.8051    -0.9464 C.2     
  29 N29            2.9358    -3.9266    -0.3752 N.am    
  30 C30            4.1134    -6.0646    -0.5293 C.3     
  31 C31            4.2590    -4.5417    -0.5052 C.3     
  32 C32           -7.3791    -1.9646     0.5983 C.3     
  33 Br33          -1.3250     6.9958     0.2155 Br      
  34 C34            5.4954    -6.7070    -0.6651 C.3     
  35 N35            5.3559    -8.1651    -0.6881 N.am    
  36 C36            5.1894    -8.8592    -1.8208 C.2     
  37 C37            5.0801   -10.3318    -1.4907 C.3     
  38 C38            5.2138   -10.3689     0.0453 C.3     
  39 C39            5.3902    -8.9138     0.4212 C.2     
  40 O40            5.5328    -8.4922     1.5488 O.2     
  41 O41            5.1344    -8.3832    -2.9343 O.2     
  42 H42           -0.7821     1.7997     0.4491 H       
  43 H43           -1.7794    -2.8143     0.0624 H       
  44 H44            0.4389    -3.8445    -0.1555 H       
  45 H45            2.2407     0.0501    -0.2244 H       
  46 H46           -2.6742    -0.3135    -1.8945 H       
  47 H47           -3.3126    -1.6802    -0.9489 H       
  48 H48           -3.0662    -1.6660     1.4866 H       
  49 H49           -2.2529    -0.2891     2.2693 H       
  50 H50           -4.7283    -0.1578     2.5190 H       
  51 H51           -4.0899     1.2089     1.5734 H       
  52 H52           -4.3363     1.1947    -0.8621 H       
  53 H53           -5.1496    -0.1821    -1.6448 H       
  54 H54           -5.6321     2.3468     0.5641 H       
  55 H55           -9.6409    -0.5092     0.8336 H       
  56 H56           -9.8616     1.9406     0.9218 H       
  57 H57           -7.8608     3.3668     0.7874 H       
  58 H58            2.5489     4.3147    -1.6254 H       
  59 H59            1.4696     6.7493    -1.2547 H       
  60 H60            2.1447    -4.4851    -0.3198 H       
  61 H61            3.6464    -6.3996     0.3969 H       
  62 H62            3.4921    -6.3568    -1.3759 H       
  63 H63            4.7260    -4.2067    -1.4314 H       
  64 H64            4.8803    -4.2495     0.3414 H       
  65 H65           -7.2593    -2.3560     1.6085 H       
  66 H66           -8.2737    -2.3928     0.1464 H       
  67 H67           -6.5073    -2.2298     0.0002 H       
  68 H68            5.9623    -6.3719    -1.5913 H       
  69 H69            6.1167    -6.4147     0.1815 H       
  70 H70            4.1114   -10.7236    -1.8010 H       
  71 H71            5.8895   -10.8912    -1.9598 H       
  72 H72            4.3116   -10.7792     0.4991 H       
  73 H73            6.0897   -10.9467     0.3403 H       
@<TRIPOS>BOND
   1    1    2 1
   2    1   16 am
   3    1   42 1
   4    2    3 ar
   5    2    7 ar
   6    3    4 ar
   7    3    8 1
   8    4    5 ar
   9    4   43 1
  10    5    6 ar
  11    5   44 1
  12    6    7 ar
  13    6   14 1
  14    7   45 1
  15    8    9 1
  16    8   10 1
  17    9   13 1
  18    9   46 1
  19    9   47 1
  20   10   11 1
  21   10   48 1
  22   10   49 1
  23   11   12 1
  24   11   50 1
  25   11   51 1
  26   12   13 1
  27   12   19 1
  28   13   52 1
  29   13   53 1
  30   14   15 2
  31   14   29 am
  32   16   18 2
  33   16   17 1
  34   17   25 2
  35   17   26 1
  36   19   20 ar
  37   19   21 ar
  38   20   24 ar
  39   20   54 1
  40   21   22 ar
  41   21   32 1
  42   22   23 ar
  43   22   55 1
  44   23   24 ar
  45   23   56 1
  46   24   57 1
  47   25   28 1
  48   25   58 1
  49   26   27 1
  50   27   28 2
  51   27   33 1
  52   28   59 1
  53   29   31 1
  54   29   60 1
  55   30   31 1
  56   30   34 1
  57   30   61 1
  58   30   62 1
  59   31   63 1
  60   31   64 1
  61   32   65 1
  62   32   66 1
  63   32   67 1
  64   34   35 1
  65   34   68 1
  66   34   69 1
  67   35   36 am
  68   35   39 am
  69   36   37 1
  70   36   41 2
  71   37   38 1
  72   37   70 1
  73   37   71 1
  74   38   39 1
  75   38   72 1
  76   38   73 1
  77   39   40 2

#	End of record

