#	Name: ASD01042002
#	Creating user name:	WinNT
#	Creation time:	15. 06. 2019 18:58

#	Modifying user name:	WinNT
#	Modification time:	15. 06. 2019 18:58

#	Program:	/corina/corina34_cracker 3.40 0067  02.08.2006

@<TRIPOS>MOLECULE
ASD01042002
  81   85    0    0    0
SMALL
NO_CHARGES


@<TRIPOS>ATOM
   1 C1             0.5723     0.1215    -0.3571 C.3     
   2 C2             0.8733    -1.3747    -0.4186 C.3     
   3 C3             1.8651    -1.6729    -1.5439 C.3     
   4 C4             3.1200    -0.8469    -1.4163 C.3     
   5 C5             2.8298     0.6681    -1.3000 C.3     
   6 C6             1.8667     0.9000    -0.1289 C.3     
   7 C7             4.0563    -1.0391    -2.5832 C.2     
   8 C8             4.9846    -0.1689    -2.8504 C.2     
   9 C9             5.2236     1.0685    -2.0243 C.3     
  10 C10            4.2381     1.1367    -0.8614 C.3     
  11 C11            5.1899     2.3005    -2.8879 C.3     
  12 C12            5.3395     3.5690    -2.0113 C.3     
  13 C13            4.1445     3.6677    -1.0924 C.3     
  14 C14            4.1850     2.4643    -0.1384 C.3     
  15 C15            6.4043     2.4852    -3.8297 C.3     
  16 C16            6.2511     3.9800    -4.2363 C.3     
  17 C17            5.5024     4.6696    -3.0655 C.3     
  18 C18            6.3480     5.8130    -2.5012 C.3     
  19 C19            6.6256     6.8351    -3.6054 C.3     
  20 C20            7.5913     7.9006    -3.0829 C.3     
  21 C21            7.9813     8.8213    -4.2105 C.2     
  22 O22            6.9544     8.6555    -2.0502 O.3     
  23 C23            9.2463     9.0123    -4.4924 C.2     
  24 C24           10.3076     8.2320    -3.7604 C.3     
  25 C25            9.6402    10.0125    -5.5486 C.3     
  26 C26            5.5909     6.4908    -1.3574 C.3     
  27 C27            6.6304     3.5214    -1.1836 C.3     
  28 C28            4.6155     0.0195     0.1493 C.3     
  29 O29            1.4108    -1.8141     0.8307 O.3     
  30 C30            2.2441    -3.1594    -1.4668 C.3     
  31 O31            3.8735    -1.1530    -0.2295 O.3     
  32 C32            3.9290     2.3626    -3.7556 C.3     
  33 C33            1.2034    -1.4080    -2.8970 C.3     
  34 H34            0.0978     0.4559    -1.2767 H       
  35 H35           -0.1094     0.3156     0.4774 H       
  36 H36           -0.0572    -1.9190    -0.6122 H       
  37 H37            2.4537     1.1063    -2.2184 H       
  38 H38            1.6311     1.9641    -0.0664 H       
  39 H39            2.3318     0.5745     0.7981 H       
  40 H40            3.9684    -1.9136    -3.2130 H       
  41 H41            5.6190    -0.3406    -3.7073 H       
  42 H42            6.2399     0.9608    -1.5969 H       
  43 H43            4.2116     4.5923    -0.5035 H       
  44 H44            3.2081     3.6834    -1.6435 H       
  45 H45            3.2841     2.4914     0.4830 H       
  46 H46            5.0323     2.5424     0.5381 H       
  47 H47            7.3396     2.2900    -3.3315 H       
  48 H48            6.2869     1.8430    -4.7051 H       
  49 H49            7.2367     4.4305    -4.3601 H       
  50 H50            5.6816     4.0675    -5.1572 H       
  51 H51            4.5341     5.0374    -3.3894 H       
  52 H52            7.2920     5.4165    -2.1274 H       
  53 H53            7.0703     6.3311    -4.4635 H       
  54 H54            5.6907     7.3081    -3.9060 H       
  55 H55            8.4830     7.4180    -2.6829 H       
  56 H56            7.2179     9.3235    -4.7861 H       
  57 H57            6.1181     9.0606    -2.3179 H       
  58 H58           10.1113     7.1649    -3.8655 H       
  59 H59           11.2854     8.4648    -4.1820 H       
  60 H60           10.2936     8.5017    -2.7044 H       
  61 H61            9.7833    10.9900    -5.0880 H       
  62 H62           10.5691     9.6943    -6.0218 H       
  63 H63            8.8530    10.0766    -6.2998 H       
  64 H64            5.3640     5.7552    -0.5857 H       
  65 H65            6.2070     7.2838    -0.9335 H       
  66 H66            4.6624     6.9163    -1.7381 H       
  67 H67            7.4887     3.4576    -1.8525 H       
  68 H68            6.7076     4.4249    -0.5787 H       
  69 H69            6.6121     2.6481    -0.5317 H       
  70 H70            5.6845    -0.1765     0.0868 H       
  71 H71            4.3461     0.3327     1.1550 H       
  72 H72            0.8196    -1.6764     1.5834 H       
  73 H73            1.3484    -3.7693    -1.5849 H       
  74 H74            2.9519    -3.3956    -2.2613 H       
  75 H75            2.7008    -3.3681    -0.4994 H       
  76 H76            3.0548     2.4917    -3.1174 H       
  77 H77            4.0032     3.2038    -4.4447 H       
  78 H78            3.8317     1.4364    -4.3220 H       
  79 H79            0.8963    -0.3636    -2.9530 H       
  80 H80            1.9128    -1.6215    -3.6964 H       
  81 H81            0.3293    -2.0500    -3.0058 H       
@<TRIPOS>BOND
   1    1    2 1
   2    1    6 1
   3    1   34 1
   4    1   35 1
   5    2    3 1
   6    2   29 1
   7    2   36 1
   8    3    4 1
   9    3   30 1
  10    3   33 1
  11    4    5 1
  12    4    7 1
  13    4   31 1
  14    5    6 1
  15    5   10 1
  16    5   37 1
  17    6   38 1
  18    6   39 1
  19    7    8 2
  20    7   40 1
  21    8    9 1
  22    8   41 1
  23    9   10 1
  24    9   11 1
  25    9   42 1
  26   10   14 1
  27   10   28 1
  28   11   12 1
  29   11   15 1
  30   11   32 1
  31   12   13 1
  32   12   27 1
  33   12   17 1
  34   13   14 1
  35   13   43 1
  36   13   44 1
  37   14   45 1
  38   14   46 1
  39   15   16 1
  40   15   47 1
  41   15   48 1
  42   16   17 1
  43   16   49 1
  44   16   50 1
  45   17   18 1
  46   17   51 1
  47   18   19 1
  48   18   26 1
  49   18   52 1
  50   19   20 1
  51   19   53 1
  52   19   54 1
  53   20   21 1
  54   20   22 1
  55   20   55 1
  56   21   23 2
  57   21   56 1
  58   22   57 1
  59   23   24 1
  60   23   25 1
  61   24   58 1
  62   24   59 1
  63   24   60 1
  64   25   61 1
  65   25   62 1
  66   25   63 1
  67   26   64 1
  68   26   65 1
  69   26   66 1
  70   27   67 1
  71   27   68 1
  72   27   69 1
  73   28   31 1
  74   28   70 1
  75   28   71 1
  76   29   72 1
  77   30   73 1
  78   30   74 1
  79   30   75 1
  80   32   76 1
  81   32   77 1
  82   32   78 1
  83   33   79 1
  84   33   80 1
  85   33   81 1

#	End of record

