#	Name: ASD01948037
#	Creating user name:	WinNT
#	Creation time:	15. 06. 2019 20:13

#	Modifying user name:	WinNT
#	Modification time:	15. 06. 2019 20:13

#	Program:	/corina/corina34_cracker 3.40 0067  02.08.2006

@<TRIPOS>MOLECULE
ASD01948037
  50   52    0    0    0
SMALL
NO_CHARGES


@<TRIPOS>ATOM
   1 C1            -0.2067     1.1026    -0.3149 C.2     
   2 C2             0.0040    -0.2521    -0.2862 C.2     
   3 C3             1.3004    -0.7620    -0.1340 C.2     
   4 C4             2.3635     0.1246    -0.0133 C.2     
   5 C5             2.1078     1.4930    -0.0473 C.2     
   6 N6             0.8478     1.9548    -0.1951 N.am    
   7 N7            -1.4078     1.7763    -0.4623 N.am    
   8 C8            -1.1580     3.2211    -0.4353 C.3     
   9 C9             0.3635     3.3443    -0.2557 C.3     
  10 C10           -2.6154     1.1958    -0.6082 C.2     
  11 O11           -2.7223    -0.0119    -0.5301 O.2     
  12 O12           -3.7032     1.9542    -0.8407 O.3     
  13 O13            3.0331     2.2838     0.0578 O.2     
  14 N14           -1.1425    -1.1795    -0.4160 N.pl3   
  15 O15           -1.5166    -1.5347    -1.5194 O.2     
  16 O16           -1.7117    -1.5874     0.5806 O.2     
  17 C17            3.7714    -0.3869     0.1524 C.3     
  18 N18            1.5186    -2.1291    -0.1039 N.pl3   
  19 C19            1.0323    -2.8920     0.9636 C.ar    
  20 C20            1.1933    -4.2739     0.9634 C.ar    
  21 C21            0.7118    -5.0238     2.0202 C.ar    
  22 C22            0.0703    -4.4008     3.0762 C.ar    
  23 C23           -0.0908    -3.0273     3.0782 C.ar    
  24 C24            0.3932    -2.2711     2.0278 C.ar    
  25 I25           -0.6592    -5.5410     4.6752 I       
  26 F26            1.8189    -4.8819    -0.0681 F       
  27 C27           -4.9707     1.2613    -0.9873 C.3     
  28 C28           -5.2780     0.4835     0.2939 C.3     
  29 C29           -6.0824     2.2807    -1.2441 C.3     
  30 C30           -4.8874     0.2897    -2.1662 C.3     
  31 H31           -1.4657     3.6782    -1.3758 H       
  32 H32           -1.6815     3.6823     0.4022 H       
  33 H33            0.5970     3.8684     0.6711 H       
  34 H34            0.8036     3.8629    -1.1074 H       
  35 H35            4.1991    -0.5976    -0.8278 H       
  36 H36            4.3748     0.3672     0.6576 H       
  37 H37            3.7585    -1.3002     0.7471 H       
  38 H38            2.0087    -2.5580    -0.8229 H       
  39 H39            0.8361    -6.0966     2.0215 H       
  40 H40           -0.5920    -2.5445     3.9041 H       
  41 H41            0.2706    -1.1981     2.0329 H       
  42 H42           -5.3373     1.1757     1.1338 H       
  43 H43           -6.2295    -0.0366     0.1839 H       
  44 H44           -4.4860    -0.2427     0.4769 H       
  45 H45           -5.8636     2.8348    -2.1568 H       
  46 H46           -7.0340     1.7605    -1.3541 H       
  47 H47           -6.1418     2.9729    -0.4042 H       
  48 H48           -4.0955    -0.4365    -1.9833 H       
  49 H49           -5.8390    -0.2305    -2.2763 H       
  50 H50           -4.6686     0.8438    -3.0790 H       
@<TRIPOS>BOND
   1    1    2 2
   2    1    6 1
   3    1    7 1
   4    2    3 1
   5    2   14 1
   6    3    4 2
   7    3   18 1
   8    4    5 1
   9    4   17 1
  10    5    6 am
  11    5   13 2
  12    6    9 1
  13    7    8 1
  14    7   10 am
  15    8    9 1
  16    8   31 1
  17    8   32 1
  18    9   33 1
  19    9   34 1
  20   10   11 2
  21   10   12 1
  22   12   27 1
  23   14   15 2
  24   14   16 2
  25   17   35 1
  26   17   36 1
  27   17   37 1
  28   18   19 1
  29   18   38 1
  30   19   20 ar
  31   19   24 ar
  32   20   21 ar
  33   20   26 1
  34   21   22 ar
  35   21   39 1
  36   22   23 ar
  37   22   25 1
  38   23   24 ar
  39   23   40 1
  40   24   41 1
  41   27   28 1
  42   27   30 1
  43   27   29 1
  44   28   42 1
  45   28   43 1
  46   28   44 1
  47   29   45 1
  48   29   46 1
  49   29   47 1
  50   30   48 1
  51   30   49 1
  52   30   50 1

#	End of record

