#	Name: ASD02408153
#	Creating user name:	WinNT
#	Creation time:	15. 06. 2019 20:21

#	Modifying user name:	WinNT
#	Modification time:	15. 06. 2019 20:21

#	Program:	/corina/corina34_cracker 3.40 0067  02.08.2006

@<TRIPOS>MOLECULE
ASD02408153
  45   47    0    0    0
SMALL
NO_CHARGES


@<TRIPOS>ATOM
   1 O1            -0.0361     1.1036     0.0836 O.3     
   2 C2            -0.0798    -0.2534     0.0238 C.ar    
   3 C3             1.0978    -0.9861     0.0014 C.ar    
   4 C4            -1.3024    -0.9086    -0.0091 C.ar    
   5 C5            -1.3441    -2.2879    -0.0693 C.ar    
   6 C6            -0.1687    -3.0158    -0.0969 C.ar    
   7 C7             1.0508    -2.3656    -0.0589 C.ar    
   8 C8            -2.5838    -0.1160     0.0214 C.3     
   9 C9            -2.9410     0.3155    -1.3777 C.2     
  10 N10           -4.0600     1.0404    -1.5698 N.am    
  11 N11           -2.1529    -0.0211    -2.3623 N.2     
  12 C12           -2.4196     0.3346    -3.6255 C.2     
  13 C13           -3.5738     1.0873    -3.8982 C.2     
  14 C14           -4.4100     1.4440    -2.8092 C.2     
  15 N15           -1.5736    -0.0321    -4.6432 N.pl3   
  16 C16           -1.9793    -0.3570    -6.0228 C.3     
  17 O17           -5.4237     2.0964    -2.9893 O.2     
  18 C18            1.2573     1.7100     0.1207 C.3     
  19 C19           -0.8474    -1.2646    -6.5657 C.3     
  20 C20            0.4064    -0.6203    -5.9175 C.3     
  21 C21           -0.1126    -0.1596    -4.5390 C.3     
  22 C22            0.5097     1.1894    -4.1730 C.3     
  23 O23            0.2823     2.1218    -5.2317 O.3     
  24 C24           -3.8941     1.4874    -5.2354 C.1     
  25 N25           -4.1481     1.8047    -6.2962 N.1     
  26 H26            2.0507    -0.4786     0.0307 H       
  27 H27           -2.2956    -2.7983    -0.0946 H       
  28 H28           -0.2034    -4.0942    -0.1440 H       
  29 H29            1.9674    -2.9363    -0.0804 H       
  30 H30           -3.3844    -0.7351     0.4262 H       
  31 H31           -2.4517     0.7643     0.6505 H       
  32 H32           -4.6186     1.2737    -0.8118 H       
  33 H33           -2.9284    -0.8931    -6.0228 H       
  34 H34           -2.0560     0.5518    -6.6197 H       
  35 H35            1.7973     1.3606     1.0007 H       
  36 H36            1.8118     1.4384    -0.7775 H       
  37 H37            1.1492     2.7937     0.1673 H       
  38 H38           -0.9762    -2.2934    -6.2291 H       
  39 H39           -0.7943    -1.2147    -7.6532 H       
  40 H40            1.2037    -1.3552    -5.8061 H       
  41 H41            0.7470     0.2340    -6.5025 H       
  42 H42            0.1366    -0.9029    -3.7817 H       
  43 H43            0.0541     1.5628    -3.2559 H       
  44 H44            1.5820     1.0657    -4.0218 H       
  45 H45            0.6505     3.0008    -5.0676 H       
@<TRIPOS>BOND
   1    1    2 1
   2    1   18 1
   3    2    3 ar
   4    2    4 ar
   5    3    7 ar
   6    3   26 1
   7    4    5 ar
   8    4    8 1
   9    5    6 ar
  10    5   27 1
  11    6    7 ar
  12    6   28 1
  13    7   29 1
  14    8    9 1
  15    8   30 1
  16    8   31 1
  17    9   10 1
  18    9   11 2
  19   10   14 am
  20   10   32 1
  21   11   12 1
  22   12   13 2
  23   12   15 1
  24   13   14 1
  25   13   24 1
  26   14   17 2
  27   15   16 1
  28   15   21 1
  29   16   19 1
  30   16   33 1
  31   16   34 1
  32   18   35 1
  33   18   36 1
  34   18   37 1
  35   19   20 1
  36   19   38 1
  37   19   39 1
  38   20   21 1
  39   20   40 1
  40   20   41 1
  41   21   22 1
  42   21   42 1
  43   22   23 1
  44   22   43 1
  45   22   44 1
  46   23   45 1
  47   24   25 3

#	End of record

