#	Name: ASD01230091
#	Creating user name:	WinNT
#	Creation time:	15. 06. 2019 19:11

#	Modifying user name:	WinNT
#	Modification time:	15. 06. 2019 19:11

#	Program:	/corina/corina34_cracker 3.40 0067  02.08.2006

@<TRIPOS>MOLECULE
ASD01230091
  45   48    0    0    0
SMALL
NO_CHARGES


@<TRIPOS>ATOM
   1 C1            -0.0168     1.3856     0.0097 C.2     
   2 C2             0.0021    -0.0041     0.0020 C.2     
   3 C3            -1.3421    -0.4374     0.0130 C.2     
   4 N4            -2.1110     0.6169     0.0263 N.2     
   5 N5            -1.3131     1.7663     0.0300 N.pl3   
   6 C6            -1.8004     3.1477     0.0447 C.3     
   7 N7             1.0869     2.2235     0.0036 N.3     
   8 C8             1.1652    -0.8392    -0.0144 C.1     
   9 C9             2.1188    -1.5239    -0.0279 C.1     
  10 C10            3.2819    -2.3590    -0.0444 C.ar    
  11 C11            3.1476    -3.7503    -0.0504 C.ar    
  12 C12            4.5571    -1.7870    -0.0603 C.ar    
  13 C13            5.6726    -2.5977    -0.0766 C.ar    
  14 C14            5.5317    -3.9744    -0.0772 C.ar    
  15 C15            4.2724    -4.5481    -0.0668 C.ar    
  16 S16            6.9629    -5.0020    -0.0980 S.o2    
  17 N17            7.3820    -5.2907     1.4778 N.am    
  18 O18            6.5528    -6.2502    -0.6393 O.2     
  19 O19            8.0104    -4.2198    -0.6550 O.2     
  20 C20            1.9391     1.9871     1.1910 C.3     
  21 C21            3.3572     2.2422     0.7333 C.ar    
  22 C22            3.3801     2.2020    -0.6505 C.ar    
  23 C23            1.9776     1.9195    -1.1392 C.3     
  24 C24            4.5213     2.4863     1.4363 C.ar    
  25 C25            5.7094     2.6910     0.7580 C.ar    
  26 C26            5.7318     2.6507    -0.6250 C.ar    
  27 C27            4.5673     2.4057    -1.3278 C.ar    
  28 Cl28           7.1720     2.9977     1.6415 Cl      
  29 H29           -1.6761    -1.4644     0.0105 H       
  30 H30           -1.9144     3.4819     1.0760 H       
  31 H31           -1.0855     3.7907    -0.4686 H       
  32 H32           -2.7640     3.1985    -0.4623 H       
  33 H33            2.1654    -4.1993    -0.0420 H       
  34 H34            4.6686    -0.7127    -0.0602 H       
  35 H35            6.6586    -2.1571    -0.0892 H       
  36 H36            4.1702    -5.6232    -0.0673 H       
  37 H37            6.8564    -4.9078     2.1975 H       
  38 H38            8.1532    -5.8428     1.6812 H       
  39 H39            1.6713     2.6782     1.9903 H       
  40 H40            1.8329     0.9571     1.5316 H       
  41 H41            1.8818     0.8714    -1.4229 H       
  42 H42            1.7371     2.5628    -1.9856 H       
  43 H43            4.5036     2.5177     2.5157 H       
  44 H44            6.6591     2.8104    -1.1551 H       
  45 H45            4.5850     2.3743    -2.4072 H       
@<TRIPOS>BOND
   1    1    2 2
   2    1    7 1
   3    1    5 1
   4    2    3 1
   5    2    8 1
   6    3    4 2
   7    3   29 1
   8    4    5 1
   9    5    6 1
  10    6   30 1
  11    6   31 1
  12    6   32 1
  13    7   20 1
  14    7   23 1
  15    8    9 3
  16    9   10 1
  17   10   11 ar
  18   10   12 ar
  19   11   15 ar
  20   11   33 1
  21   12   13 ar
  22   12   34 1
  23   13   14 ar
  24   13   35 1
  25   14   15 ar
  26   14   16 1
  27   15   36 1
  28   16   17 am
  29   16   18 2
  30   16   19 2
  31   17   37 1
  32   17   38 1
  33   20   21 1
  34   20   39 1
  35   20   40 1
  36   21   22 ar
  37   21   24 ar
  38   22   23 1
  39   22   27 ar
  40   23   41 1
  41   23   42 1
  42   24   25 ar
  43   24   43 1
  44   25   26 ar
  45   25   28 1
  46   26   27 ar
  47   26   44 1
  48   27   45 1

#	End of record

