#	Name: ASD01912352
#	Creating user name:	WinNT
#	Creation time:	15. 06. 2019 19:59

#	Modifying user name:	WinNT
#	Modification time:	15. 06. 2019 19:59

#	Program:	/corina/corina34_cracker 3.40 0067  02.08.2006

@<TRIPOS>MOLECULE
ASD01912352
  53   55    0    0    0
SMALL
NO_CHARGES


@<TRIPOS>ATOM
   1 C1            -0.0167     1.3791     0.0096 C.ar    
   2 C2             0.0021    -0.0041     0.0020 C.ar    
   3 C3             1.2202    -0.6700    -0.0132 C.ar    
   4 C4             2.3829     0.0790    -0.0202 C.ar    
   5 C5             2.2916     1.4735    -0.0119 C.ar    
   6 N6             1.1034     2.0714     0.0026 N.ar    
   7 C7             3.4855     2.2642    -0.0190 C.1     
   8 C8             4.4642     2.9125    -0.0248 C.1     
   9 C9             5.6581     3.7033    -0.0320 C.2     
  10 N10            5.4112     7.5517    -1.1198 N.am    
  11 C11            6.7206     6.8901    -1.1864 C.3     
  12 C12            6.8259     5.8862    -0.0314 C.3     
  13 C13            5.5764     5.0331    -0.0241 C.2     
  14 C14            4.2319     5.7267    -0.0070 C.3     
  15 C15            4.1917     6.7346    -1.1626 C.3     
  16 C16            5.3297     8.8930    -1.0150 C.2     
  17 C17            3.9816     9.5629    -0.9473 C.3     
  18 C18            4.1697    11.0770    -0.8323 C.3     
  19 C19            2.8009    11.7572    -0.7635 C.3     
  20 O20            6.3414     9.5607    -0.9752 O.2     
  21 C21            2.9862    13.2484    -0.6502 C.ar    
  22 C22            3.0571    14.0248    -1.7918 C.ar    
  23 C23            3.2271    15.3927    -1.6879 C.ar    
  24 C24            3.3257    15.9843    -0.4424 C.ar    
  25 C25            3.2538    15.2081     0.6992 C.ar    
  26 C26            3.0795    13.8407     0.5953 C.ar    
  27 C27           -1.3378     2.1040     0.0198 C.3     
  28 H28           -0.9231    -0.5612     0.0082 H       
  29 H29            1.2589    -1.7493    -0.0190 H       
  30 H30            3.3474    -0.4068    -0.0317 H       
  31 H31            6.6247     3.2217    -0.0438 H       
  32 H32            6.8169     6.3652    -2.1368 H       
  33 H33            7.5114     7.6349    -1.0963 H       
  34 H34            7.7016     5.2531    -0.1741 H       
  35 H35            6.9099     6.4220     0.9141 H       
  36 H36            3.4378     4.9909    -0.1340 H       
  37 H37            4.1006     6.2492     0.9405 H       
  38 H38            3.3175     7.3771    -1.0569 H       
  39 H39            4.1427     6.2007    -2.1116 H       
  40 H40            3.4166     9.3346    -1.8510 H       
  41 H41            3.4374     9.1972    -0.0765 H       
  42 H42            4.7346    11.3053     0.0715 H       
  43 H43            4.7138    11.4427    -1.7030 H       
  44 H44            2.2359    11.5289    -1.6673 H       
  45 H45            2.2567    11.3915     0.1073 H       
  46 H46            2.9801    13.5626    -2.7648 H       
  47 H47            3.2833    15.9992    -2.5797 H       
  48 H48            3.4592    17.0530    -0.3612 H       
  49 H49            3.3312    15.6702     1.6722 H       
  50 H50            3.0196    13.2347     1.4873 H       
  51 H51           -1.6515     2.2732     1.0499 H       
  52 H52           -1.2307     3.0618    -0.4894 H       
  53 H53           -2.0869     1.5014    -0.4938 H       
@<TRIPOS>BOND
   1    1    2 ar
   2    1    6 ar
   3    1   27 1
   4    2    3 ar
   5    2   28 1
   6    3    4 ar
   7    3   29 1
   8    4    5 ar
   9    4   30 1
  10    5    6 ar
  11    5    7 1
  12    7    8 3
  13    8    9 1
  14    9   13 2
  15    9   31 1
  16   10   11 1
  17   10   15 1
  18   10   16 am
  19   11   12 1
  20   11   32 1
  21   11   33 1
  22   12   13 1
  23   12   34 1
  24   12   35 1
  25   13   14 1
  26   14   15 1
  27   14   36 1
  28   14   37 1
  29   15   38 1
  30   15   39 1
  31   16   17 1
  32   16   20 2
  33   17   18 1
  34   17   40 1
  35   17   41 1
  36   18   19 1
  37   18   42 1
  38   18   43 1
  39   19   21 1
  40   19   44 1
  41   19   45 1
  42   21   22 ar
  43   21   26 ar
  44   22   23 ar
  45   22   46 1
  46   23   24 ar
  47   23   47 1
  48   24   25 ar
  49   24   48 1
  50   25   26 ar
  51   25   49 1
  52   26   50 1
  53   27   51 1
  54   27   52 1
  55   27   53 1

#	End of record

