#	Name: ASD01900669
#	Creating user name:	WinNT
#	Creation time:	15. 06. 2019 19:52

#	Modifying user name:	WinNT
#	Modification time:	15. 06. 2019 19:52

#	Program:	/corina/corina34_cracker 3.40 0067  02.08.2006

@<TRIPOS>MOLECULE
ASD01900669
  70   75    0    0    0
SMALL
NO_CHARGES


@<TRIPOS>ATOM
   1 C1            -0.9173    -0.2484    -2.7295 C.ar    
   2 C2            -1.0134    -1.6261    -2.5000 C.ar    
   3 C3             0.1238    -2.4333    -2.5688 C.ar    
   4 C4             1.3519    -1.8662    -2.8665 C.ar    
   5 C5             1.4306    -0.4826    -3.0899 C.ar    
   6 O6             2.4599    -2.6337    -2.9487 O.3     
   7 C7             3.6931    -2.0986    -2.9388 C.2     
   8 C8             3.9223    -0.7822    -3.1550 C.2     
   9 C9             2.7624     0.0981    -3.3935 C.2     
  10 C10            4.8462    -2.9843    -2.6819 C.ar    
  11 N11            6.0781    -2.4670    -2.6689 N.ar    
  12 C12            7.1463    -3.1915    -2.4476 C.ar    
  13 C13            7.0291    -4.5723    -2.2104 C.ar    
  14 C14            5.7367    -5.1616    -2.2156 C.ar    
  15 C15            4.6275    -4.3339    -2.4535 C.ar    
  16 C16            8.1506    -5.3803    -1.9701 C.ar    
  17 C17            7.9832    -6.7137    -1.7461 C.ar    
  18 C18            6.7149    -7.2911    -1.7517 C.ar    
  19 C19            5.6026    -6.5385    -1.9804 C.ar    
  20 C20            0.2934     0.3152    -3.0213 C.ar    
  21 C21           -2.2842    -2.2102    -2.1926 C.1     
  22 C22           -3.3261    -2.6890    -1.9405 C.1     
  23 C23           -4.5969    -3.2732    -1.6331 C.ar    
  24 C24           -4.6999    -4.6468    -1.4031 C.ar    
  25 C25           -5.7384    -2.4699    -1.5565 C.ar    
  26 C26           -6.9604    -3.0366    -1.2602 C.ar    
  27 C27           -7.0609    -4.3980    -1.0379 C.ar    
  28 C28           -5.9322    -5.2037    -1.1065 C.ar    
  29 O29           -6.0380    -6.5408    -0.8874 O.3     
  30 C30           -7.3406    -7.0487    -0.5918 C.3     
  31 C31           -7.2616    -8.5615    -0.3774 C.3     
  32 N32           -6.4588    -8.8451     0.8198 N.3     
  33 C33           -6.4314   -10.2862     1.1063 C.3     
  34 C34           -6.9561    -8.0901     1.9783 C.3     
  35 C35           -6.0475    -8.3511     3.1820 C.3     
  36 N36           -6.0201    -9.7922     3.4685 N.3     
  37 C37           -5.5229   -10.5472     2.3100 C.3     
  38 C38           -5.2174   -10.0758     4.6657 C.3     
  39 N39            2.9000     1.3205    -3.8479 N.2     
  40 O40            1.7551     2.0907    -4.1657 O.3     
  41 H41           -1.8018     0.3693    -2.6803 H       
  42 H42            0.0462    -3.4956    -2.3904 H       
  43 H43            4.9273    -0.3866    -3.1522 H       
  44 H44            8.1211    -2.7266    -2.4477 H       
  45 H45            3.6273    -4.7411    -2.4661 H       
  46 H46            9.1403    -4.9481    -1.9632 H       
  47 H47            8.8480    -7.3337    -1.5614 H       
  48 H48            6.6122    -8.3510    -1.5717 H       
  49 H49            4.6254    -6.9983    -1.9822 H       
  50 H50            0.3668     1.3780    -3.1983 H       
  51 H51           -3.8213    -5.2725    -1.4567 H       
  52 H52           -5.6634    -1.4064    -1.7288 H       
  53 H53           -7.8417    -2.4151    -1.2012 H       
  54 H54           -8.0206    -4.8355    -0.8056 H       
  55 H55           -7.7195    -6.5728     0.3127 H       
  56 H56           -8.0116    -6.8342    -1.4236 H       
  57 H57           -8.2663    -8.9626    -0.2445 H       
  58 H58           -6.7961    -9.0278    -1.2458 H       
  59 H59           -7.4406   -10.6316     1.3307 H       
  60 H60           -6.0479   -10.8224     0.2382 H       
  61 H61           -6.9551    -7.0252     1.7460 H       
  62 H62           -7.9712    -8.4106     2.2127 H       
  63 H63           -5.0384    -8.0057     2.9576 H       
  64 H64           -6.4311    -7.8149     4.0501 H       
  65 H65           -5.5239   -11.6121     2.5422 H       
  66 H66           -4.5077   -10.2267     2.0756 H       
  67 H67           -5.6472    -9.5572     5.5226 H       
  68 H68           -5.2139   -11.1492     4.8549 H       
  69 H69           -4.1953    -9.7313     4.5077 H       
  70 H70            1.9564     2.9781    -4.4929 H       
@<TRIPOS>BOND
   1    1    2 ar
   2    1   20 ar
   3    1   41 1
   4    2    3 ar
   5    2   21 1
   6    3    4 ar
   7    3   42 1
   8    4    5 ar
   9    4    6 1
  10    5   20 ar
  11    5    9 1
  12    6    7 1
  13    7    8 2
  14    7   10 1
  15    8    9 1
  16    8   43 1
  17    9   39 2
  18   10   11 ar
  19   10   15 ar
  20   11   12 ar
  21   12   13 ar
  22   12   44 1
  23   13   14 ar
  24   13   16 ar
  25   14   15 ar
  26   14   19 ar
  27   15   45 1
  28   16   17 ar
  29   16   46 1
  30   17   18 ar
  31   17   47 1
  32   18   19 ar
  33   18   48 1
  34   19   49 1
  35   20   50 1
  36   21   22 3
  37   22   23 1
  38   23   24 ar
  39   23   25 ar
  40   24   28 ar
  41   24   51 1
  42   25   26 ar
  43   25   52 1
  44   26   27 ar
  45   26   53 1
  46   27   28 ar
  47   27   54 1
  48   28   29 1
  49   29   30 1
  50   30   31 1
  51   30   55 1
  52   30   56 1
  53   31   32 1
  54   31   57 1
  55   31   58 1
  56   32   33 1
  57   32   34 1
  58   33   37 1
  59   33   59 1
  60   33   60 1
  61   34   35 1
  62   34   61 1
  63   34   62 1
  64   35   36 1
  65   35   63 1
  66   35   64 1
  67   36   37 1
  68   36   38 1
  69   37   65 1
  70   37   66 1
  71   38   67 1
  72   38   68 1
  73   38   69 1
  74   39   40 1
  75   40   70 1

#	End of record

