#	Name: ASD00069345
#	Creating user name:	WinNT
#	Creation time:	15. 06. 2019 18:29

#	Modifying user name:	WinNT
#	Modification time:	15. 06. 2019 18:29

#	Program:	/corina/corina34_cracker 3.40 0067  02.08.2006

@<TRIPOS>MOLECULE
ASD00069345
  61   62    0    0    0
SMALL
NO_CHARGES


@<TRIPOS>ATOM
   1 C1            -0.0160     1.3109    -0.0023 C.2     
   2 N2             0.0008    -0.0049    -0.0399 N.2     
   3 C3             1.2633    -0.4264    -0.0666 C.2     
   4 C4             2.0768     0.6589    -0.0452 C.2     
   5 N5             1.2757     1.7573    -0.0046 N.pl3   
   6 C6            -1.2214     2.1577     0.0304 C.2     
   7 O7            -1.1131     3.3687     0.0637 O.2     
   8 N8            -2.4439     1.5904     0.0233 N.am    
   9 C9             1.7145     3.1546     0.0296 C.3     
  10 O10            3.1425     3.2059     0.0145 O.3     
  11 C11            3.6768     4.5309     0.0456 C.3     
  12 C12            5.2053     4.4650     0.0262 C.3     
  13 Si13           5.9019     6.1924     0.0667 Si      
  14 C14            5.3371     7.0535     1.6192 C.3     
  15 C15            7.7630     6.1122     0.0430 C.3     
  16 C16            5.3021     7.1390    -1.4216 C.3     
  17 C17           -3.5877     2.3901     0.1390 C.ar    
  18 C18           -4.7658     1.8550     0.6612 C.ar    
  19 C19           -5.8945     2.6527     0.7734 C.ar    
  20 C20           -5.8503     3.9740     0.3685 C.ar    
  21 C21           -4.6831     4.5040    -0.1493 C.ar    
  22 C22           -3.5512     3.7176    -0.2596 C.ar    
  23 N23           -4.8082     0.5178     1.0698 N.pl3   
  24 C24           -6.0463    -0.0418     1.6177 C.3     
  25 C25           -5.8240    -1.5107     1.9835 C.3     
  26 N26           -7.0655    -2.0718     2.5330 N.3     
  27 C27           -8.1185    -2.1219     1.5099 C.3     
  28 C28           -6.8311    -3.4010     3.1127 C.3     
  29 Br29           1.8265    -2.2306    -0.1236 Br      
  30 H30            3.1567     0.6520    -0.0577 H       
  31 H31           -2.5316     0.6281    -0.0619 H       
  32 H32            1.3229     3.6798    -0.8415 H       
  33 H33            1.3434     3.6298     0.9376 H       
  34 H34            3.3259     5.0847    -0.8252 H       
  35 H35            3.3464     5.0347     0.9540 H       
  36 H36            5.5562     3.9112     0.8969 H       
  37 H37            5.5357     3.9612    -0.8822 H       
  38 H38            5.6881     6.4997     2.4900 H       
  39 H39            5.7447     8.0642     1.6429 H       
  40 H40            4.2482     7.1004     1.6331 H       
  41 H41            8.0934     5.6084    -0.8654 H       
  42 H42            8.1705     7.1229     0.0667 H       
  43 H43            8.1139     5.5584     0.9137 H       
  44 H44            4.2132     7.1859    -1.4078 H       
  45 H45            5.7096     8.1496    -1.3979 H       
  46 H46            5.6325     6.6352    -2.3300 H       
  47 H47           -6.8082     2.2418     1.1768 H       
  48 H48           -6.7303     4.5938     0.4566 H       
  49 H49           -4.6543     5.5364    -0.4648 H       
  50 H50           -2.6398     4.1362    -0.6604 H       
  51 H51           -4.0179    -0.0390     0.9904 H       
  52 H52           -6.3333     0.5153     2.5096 H       
  53 H53           -6.8388     0.0313     0.8730 H       
  54 H54           -5.5370    -2.0678     1.0917 H       
  55 H55           -5.0315    -1.5837     2.7283 H       
  56 H56           -7.7895    -2.7474     0.6802 H       
  57 H57           -9.0265    -2.5412     1.9433 H       
  58 H58           -8.3210    -1.1141     1.1472 H       
  59 H59           -6.0976    -3.3232     3.9152 H       
  60 H60           -7.7664    -3.7933     3.5121 H       
  61 H61           -6.4554    -4.0729     2.3410 H       
@<TRIPOS>BOND
   1    1    2 2
   2    1    5 1
   3    1    6 1
   4    2    3 1
   5    3    4 2
   6    3   29 1
   7    4    5 1
   8    4   30 1
   9    5    9 1
  10    6    7 2
  11    6    8 am
  12    8   17 1
  13    8   31 1
  14    9   10 1
  15    9   32 1
  16    9   33 1
  17   10   11 1
  18   11   12 1
  19   11   34 1
  20   11   35 1
  21   12   13 1
  22   12   36 1
  23   12   37 1
  24   13   14 1
  25   13   15 1
  26   13   16 1
  27   14   38 1
  28   14   39 1
  29   14   40 1
  30   15   41 1
  31   15   42 1
  32   15   43 1
  33   16   44 1
  34   16   45 1
  35   16   46 1
  36   17   18 ar
  37   17   22 ar
  38   18   19 ar
  39   18   23 1
  40   19   20 ar
  41   19   47 1
  42   20   21 ar
  43   20   48 1
  44   21   22 ar
  45   21   49 1
  46   22   50 1
  47   23   24 1
  48   23   51 1
  49   24   25 1
  50   24   52 1
  51   24   53 1
  52   25   26 1
  53   25   54 1
  54   25   55 1
  55   26   27 1
  56   26   28 1
  57   27   56 1
  58   27   57 1
  59   27   58 1
  60   28   59 1
  61   28   60 1
  62   28   61 1

#	End of record

