#	Name: ASD01912521
#	Creating user name:	WinNT
#	Creation time:	15. 06. 2019 19:59

#	Modifying user name:	WinNT
#	Modification time:	15. 06. 2019 19:59

#	Program:	/corina/corina34_cracker 3.40 0067  02.08.2006

@<TRIPOS>MOLECULE
ASD01912521
  34   34    0    0    0
SMALL
NO_CHARGES


@<TRIPOS>ATOM
   1 C1            -0.0167     1.3828     0.0096 C.ar    
   2 C2             0.0021    -0.0041     0.0020 C.ar    
   3 C3            -1.1862    -0.7201     0.0100 C.ar    
   4 C4            -2.3933    -0.0571     0.0251 C.ar    
   5 C5            -2.4194     1.3423     0.0328 C.ar    
   6 C6            -1.2172     2.0583     0.0305 C.ar    
   7 C7            -3.7042     2.0566     0.0485 C.2     
   8 C8            -4.9969     1.2821     0.0563 C.3     
   9 O9            -3.7237     3.2692     0.0552 O.2     
  10 C10           -6.1579     2.2428     0.0721 C.2     
  11 C11           -7.5704     1.7175     0.0823 C.3     
  12 O12           -5.9564     3.4334     0.0767 O.2     
  13 C13           -8.5511     2.8918     0.0977 C.3     
  14 C14           -8.4221     3.6810    -1.2067 C.3     
  15 C15           -9.9797     2.3614     0.2337 C.3     
  16 F16            1.1828    -0.6605    -0.0137 F       
  17 C17            1.2790     2.1523     0.0014 C.3     
  18 H18           -1.1647    -1.7999     0.0040 H       
  19 H19           -3.3176    -0.6157     0.0305 H       
  20 H20           -1.2305     3.1382     0.0368 H       
  21 H21           -5.0527     0.6594    -0.8366 H       
  22 H22           -5.0363     0.6498     0.9433 H       
  23 H23           -7.7401     1.1141    -0.8094 H       
  24 H24           -7.7237     1.1045     0.9705 H       
  25 H25           -8.3238     3.5440     0.9410 H       
  26 H26           -9.1208     4.5176    -1.1957 H       
  27 H27           -7.4043     4.0589    -1.3036 H       
  28 H28           -8.6494     3.0288    -2.0499 H       
  29 H29          -10.0716     1.7991     1.1630 H       
  30 H30          -10.6784     3.1979     0.2447 H       
  31 H31          -10.2070     1.7092    -0.6095 H       
  32 H32            1.5815     2.3433    -1.0282 H       
  33 H33            1.1418     3.1003     0.5217 H       
  34 H34            2.0506     1.5699     0.5048 H       
@<TRIPOS>BOND
   1    1    2 ar
   2    1   17 1
   3    1    6 ar
   4    2    3 ar
   5    2   16 1
   6    3    4 ar
   7    3   18 1
   8    4    5 ar
   9    4   19 1
  10    5    6 ar
  11    5    7 1
  12    6   20 1
  13    7    8 1
  14    7    9 2
  15    8   10 1
  16    8   21 1
  17    8   22 1
  18   10   11 1
  19   10   12 2
  20   11   13 1
  21   11   23 1
  22   11   24 1
  23   13   14 1
  24   13   15 1
  25   13   25 1
  26   14   26 1
  27   14   27 1
  28   14   28 1
  29   15   29 1
  30   15   30 1
  31   15   31 1
  32   17   32 1
  33   17   33 1
  34   17   34 1

#	End of record

