#	Name: ASD01812951
#	Creating user name:	WinNT
#	Creation time:	15. 06. 2019 19:29

#	Modifying user name:	WinNT
#	Modification time:	15. 06. 2019 19:29

#	Program:	/corina/corina34_cracker 3.40 0067  02.08.2006

@<TRIPOS>MOLECULE
ASD01812951
  52   56    0    0    0
SMALL
NO_CHARGES


@<TRIPOS>ATOM
   1 C1            -0.0167     1.3779     0.0096 C.ar    
   2 C2             0.0021    -0.0041     0.0020 C.ar    
   3 C3             1.2092    -0.6867    -0.0132 C.ar    
   4 C4             2.3943     0.0078    -0.0207 C.ar    
   5 C5             2.3950     1.4066    -0.0132 C.ar    
   6 C6             1.1743     2.0932     0.0021 C.ar    
   7 C7             3.8414    -0.4179    -0.0373 C.3     
   8 N8             4.6320     0.8183    -0.0384 N.am    
   9 C9             3.7929     1.8683    -0.0245 C.2     
  10 C10            6.0949     0.8953    -0.0517 C.3     
  11 C11            6.5832     0.9289    -1.4770 C.ar    
  12 O12            1.1550     3.4501     0.0091 O.3     
  13 O13            4.1392     3.0338    -0.0223 O.2     
  14 C14            6.7439     2.1409    -2.1230 C.ar    
  15 C15            7.1913     2.1749    -3.4292 C.ar    
  16 C16            7.4798     0.9905    -4.0937 C.ar    
  17 C17            7.3175    -0.2249    -3.4425 C.ar    
  18 C18            6.8752    -0.2521    -2.1343 C.ar    
  19 N19            8.1413     2.1711    -6.1932 N.2     
  20 N20            7.9336     1.0217    -5.4197 N.pl3   
  21 C21            8.2492    -0.0523    -6.1784 C.2     
  22 C22            8.6432     0.4016    -7.3908 C.2     
  23 C23            8.5663     1.7986    -7.3736 C.2     
  24 F24           -1.1969     2.0353     0.0188 F       
  25 C25            1.1577     4.0924     1.2856 C.3     
  26 C26            1.1342     5.6101     1.0930 C.3     
  27 O27           -0.1123     6.0066     0.5093 O.3     
  28 C28           -0.8208     6.8747     1.4081 C.3     
  29 C29            0.2726     7.5078     2.3051 C.3     
  30 C30            1.2530     6.3136     2.4620 C.3     
  31 H31           -0.9271    -0.5546     0.0083 H       
  32 H32            1.2175    -1.7667    -0.0187 H       
  33 H33            4.0687    -1.0073     0.8510 H       
  34 H34            4.0511    -0.9977    -0.9361 H       
  35 H35            6.4157     1.8006     0.4637 H       
  36 H36            6.5093     0.0231     0.4539 H       
  37 H37            6.5189     3.0619    -1.6057 H       
  38 H38            7.3162     3.1218    -3.9334 H       
  39 H39            7.5408    -1.1478    -3.9570 H       
  40 H40            6.7533    -1.1970    -1.6257 H       
  41 H41            8.1966    -1.0865    -5.8716 H       
  42 H42            8.9613    -0.2070    -8.2243 H       
  43 H43            8.8149     2.4562    -8.1934 H       
  44 H44            0.2772     3.7841     1.8493 H       
  45 H45            2.0569     3.8095     1.8328 H       
  46 H46            1.9581     5.9134     0.4470 H       
  47 H47           -1.3473     7.6489     0.8499 H       
  48 H48           -1.5220     6.3010     2.0141 H       
  49 H49            0.7537     8.3479     1.8043 H       
  50 H50           -0.1365     7.8096     3.2693 H       
  51 H51            0.9331     5.6522     3.2671 H       
  52 H52            2.2706     6.6666     2.6297 H       
@<TRIPOS>BOND
   1    1    2 ar
   2    1    6 ar
   3    1   24 1
   4    2    3 ar
   5    2   31 1
   6    3    4 ar
   7    3   32 1
   8    4    7 1
   9    4    5 ar
  10    5    6 ar
  11    5    9 1
  12    6   12 1
  13    7    8 1
  14    7   33 1
  15    7   34 1
  16    8    9 am
  17    8   10 1
  18    9   13 2
  19   10   11 1
  20   10   35 1
  21   10   36 1
  22   11   14 ar
  23   11   18 ar
  24   12   25 1
  25   14   15 ar
  26   14   37 1
  27   15   16 ar
  28   15   38 1
  29   16   17 ar
  30   16   20 1
  31   17   18 ar
  32   17   39 1
  33   18   40 1
  34   19   20 1
  35   19   23 2
  36   20   21 1
  37   21   22 2
  38   21   41 1
  39   22   23 1
  40   22   42 1
  41   23   43 1
  42   25   26 1
  43   25   44 1
  44   25   45 1
  45   26   27 1
  46   26   30 1
  47   26   46 1
  48   27   28 1
  49   28   29 1
  50   28   47 1
  51   28   48 1
  52   29   30 1
  53   29   49 1
  54   29   50 1
  55   30   51 1
  56   30   52 1

#	End of record

