#	Name: ASD03430108
#	Creating user name:	WinNT
#	Creation time:	15. 06. 2019 20:40

#	Modifying user name:	WinNT
#	Modification time:	15. 06. 2019 20:40

#	Program:	/corina/corina34_cracker 3.40 0067  02.08.2006

@<TRIPOS>MOLECULE
ASD03430108
  52   57    0    0    0
SMALL
NO_CHARGES


@<TRIPOS>ATOM
   1 C1             0.0513     1.3739    -0.0626 C.ar    
   2 C2             0.0475    -0.0124    -0.0450 C.ar    
   3 C3             1.2373    -0.7098    -0.0408 C.ar    
   4 C4             2.4541    -0.0345    -0.0438 C.ar    
   5 C5             2.4542     1.3567    -0.0662 C.ar    
   6 C6             1.2609     2.0590    -0.0742 C.ar    
   7 O7             3.5029    -0.9057    -0.0090 O.3     
   8 C8             1.5622    -2.1794    -0.0453 C.3     
   9 C9             3.0507    -2.2103    -0.4192 C.3     
  10 C10            0.4049    -3.8569     1.0340 C.ar    
  11 C11            1.3047    -2.8252     1.2836 C.ar    
  12 C12            0.7249    -2.9455    -1.0288 C.2     
  13 N13            0.0862    -3.9018    -0.3254 N.am    
  14 O14            0.6398    -2.7433    -2.2216 O.2     
  15 C15            1.7635    -2.5877     2.5667 C.ar    
  16 C16            1.3252    -3.3849     3.6183 C.ar    
  17 C17            0.4330    -4.4110     3.3756 C.ar    
  18 C18           -0.0262    -4.6489     2.0959 C.ar    
  19 N19            2.6671    -1.5475     2.8059 N.am    
  20 O20           -1.1324     2.0467    -0.0740 O.3     
  21 C21           -1.0875     3.4334     0.2801 C.3     
  22 C22            0.0798     4.0837    -0.4748 C.3     
  23 O23            1.2883     3.4203    -0.0899 O.3     
  24 C24           -0.8344    -4.8753    -0.9178 C.3     
  25 C25            3.4978    -1.6069     3.8656 C.2     
  26 C26            4.5121    -0.5512     4.0696 C.ar    
  27 O27            3.4129    -2.5287     4.6536 O.2     
  28 C28            5.3740    -0.6097     5.1661 C.ar    
  29 C29            6.3187     0.3786     5.3504 C.ar    
  30 C30            6.4130     1.4261     4.4514 C.ar    
  31 C31            5.5614     1.4903     3.3627 C.ar    
  32 C32            4.6161     0.5055     3.1635 C.ar    
  33 H33           -0.8903    -0.5479    -0.0342 H       
  34 H34            3.3918     1.8926    -0.0768 H       
  35 H35            3.1772    -2.3436    -1.4936 H       
  36 H36            3.5723    -2.9920     0.1330 H       
  37 H37            1.6814    -3.2025     4.6215 H       
  38 H38            0.0930    -5.0311     4.1918 H       
  39 H39           -0.7237    -5.4537     1.9168 H       
  40 H40            2.6961    -0.7834     2.2092 H       
  41 H41           -2.0230     3.9158    -0.0034 H       
  42 H42           -0.9322     3.5338     1.3543 H       
  43 H43           -0.0715     3.9759    -1.5489 H       
  44 H44            0.1417     5.1407    -0.2159 H       
  45 H45           -1.8476    -4.4737    -0.9020 H       
  46 H46           -0.5388    -5.0749    -1.9478 H       
  47 H47           -0.8018    -5.8018    -0.3445 H       
  48 H48            5.3012    -1.4266     5.8688 H       
  49 H49            6.9859     0.3348     6.1985 H       
  50 H50            7.1543     2.1972     4.6002 H       
  51 H51            5.6398     2.3110     2.6651 H       
  52 H52            3.9522     0.5566     2.3132 H       
@<TRIPOS>BOND
   1    1    2 ar
   2    1    6 ar
   3    1   20 1
   4    2    3 ar
   5    2   33 1
   6    3    4 ar
   7    3    8 1
   8    4    5 ar
   9    4    7 1
  10    5    6 ar
  11    5   34 1
  12    6   23 1
  13    7    9 1
  14    8    9 1
  15    8   11 1
  16    8   12 1
  17    9   35 1
  18    9   36 1
  19   10   11 ar
  20   10   13 1
  21   10   18 ar
  22   11   15 ar
  23   12   13 am
  24   12   14 2
  25   13   24 1
  26   15   16 ar
  27   15   19 1
  28   16   17 ar
  29   16   37 1
  30   17   18 ar
  31   17   38 1
  32   18   39 1
  33   19   25 am
  34   19   40 1
  35   20   21 1
  36   21   22 1
  37   21   41 1
  38   21   42 1
  39   22   23 1
  40   22   43 1
  41   22   44 1
  42   24   45 1
  43   24   46 1
  44   24   47 1
  45   25   26 1
  46   25   27 2
  47   26   28 ar
  48   26   32 ar
  49   28   29 ar
  50   28   48 1
  51   29   30 ar
  52   29   49 1
  53   30   31 ar
  54   30   50 1
  55   31   32 ar
  56   31   51 1
  57   32   52 1

#	End of record

