#	Name: ASD01910200
#	Creating user name:	WinNT
#	Creation time:	15. 06. 2019 19:55

#	Modifying user name:	WinNT
#	Modification time:	15. 06. 2019 19:55

#	Program:	/corina/corina34_cracker 3.40 0067  02.08.2006

@<TRIPOS>MOLECULE
ASD01910200
  39   42    0    0    0
SMALL
NO_CHARGES


@<TRIPOS>ATOM
   1 C1             0.0927     1.1997    -1.3031 C.ar    
   2 C2             0.1206    -0.1767    -1.1843 C.ar    
   3 C3             1.3183    -0.8389    -0.9612 C.ar    
   4 C4             2.4945    -0.1145    -0.8574 C.ar    
   5 C5             2.4661     1.2901    -0.9792 C.ar    
   6 C6             1.2621     1.9380    -1.2015 C.ar    
   7 C7             3.9105    -0.4720    -0.6298 C.2     
   8 N8             4.6418     0.6571    -0.6225 N.am    
   9 C9             3.8658     1.7378    -0.8214 C.2     
  10 O10            4.2510     2.8888    -0.8645 O.2     
  11 O11            4.3416    -1.5968    -0.4754 O.2     
  12 C12            6.0299     0.7017    -0.4318 C.ar    
  13 C13            6.7417    -0.4746    -0.2330 C.ar    
  14 C14            8.1110    -0.4363    -0.0449 C.ar    
  15 C15            8.7796     0.7706    -0.0533 C.ar    
  16 C16            8.0732     1.9584    -0.2523 C.ar    
  17 C17            6.6926     1.9188    -0.4473 C.ar    
  18 C18            8.7866     3.2531    -0.2613 C.2     
  19 N19           10.1213     3.2883    -0.0773 N.am    
  20 C20           10.8102     4.5010    -0.1836 C.ar    
  21 C21           10.2160     5.6899     0.2320 C.ar    
  22 C22           10.9383     6.8655     0.1066 C.ar    
  23 C23           12.2146     6.8207    -0.4223 C.ar    
  24 N24           12.7492     5.6779    -0.8067 N.ar    
  25 C25           12.0993     4.5364    -0.6998 C.ar    
  26 O26            8.1695     4.2860    -0.4348 O.2     
  27 H27           -0.8458     1.7037    -1.4809 H       
  28 H28           -0.7968    -0.7407    -1.2653 H       
  29 H29            1.3341    -1.9148    -0.8684 H       
  30 H30            1.2344     3.0135    -1.2959 H       
  31 H31            6.2237    -1.4222    -0.2251 H       
  32 H32            8.6589    -1.3540     0.1095 H       
  33 H33            9.8492     0.7965     0.0944 H       
  34 H34            6.1409     2.8342    -0.6020 H       
  35 H35           10.6042     2.4727     0.1287 H       
  36 H36            9.2166     5.6955     0.6414 H       
  37 H37           10.5089     7.8062     0.4183 H       
  38 H38           12.7818     7.7342    -0.5225 H       
  39 H39           12.5703     3.6206    -1.0251 H       
@<TRIPOS>BOND
   1    1    2 ar
   2    1    6 ar
   3    1   27 1
   4    2    3 ar
   5    2   28 1
   6    3    4 ar
   7    3   29 1
   8    4    5 ar
   9    4    7 1
  10    5    6 ar
  11    5    9 1
  12    6   30 1
  13    7    8 am
  14    7   11 2
  15    8    9 am
  16    8   12 1
  17    9   10 2
  18   12   13 ar
  19   12   17 ar
  20   13   14 ar
  21   13   31 1
  22   14   15 ar
  23   14   32 1
  24   15   16 ar
  25   15   33 1
  26   16   17 ar
  27   16   18 1
  28   17   34 1
  29   18   19 am
  30   18   26 2
  31   19   20 1
  32   19   35 1
  33   20   21 ar
  34   20   25 ar
  35   21   22 ar
  36   21   36 1
  37   22   23 ar
  38   22   37 1
  39   23   24 ar
  40   23   38 1
  41   24   25 ar
  42   25   39 1

#	End of record

