#	Name: ASD07301002
#	Creating user name:	WinNT
#	Creation time:	15. 06. 2019 21:10

#	Modifying user name:	WinNT
#	Modification time:	15. 06. 2019 21:10

#	Program:	/corina/corina34_cracker 3.40 0067  02.08.2006

@<TRIPOS>MOLECULE
ASD07301002
  32   34    0    0    0
SMALL
NO_CHARGES


@<TRIPOS>ATOM
   1 C1            -0.0172     1.4154     0.0098 C.2     
   2 C2             0.0021    -0.0041     0.0020 C.2     
   3 C3             1.2459    -0.6722    -0.0134 C.2     
   4 C4             2.3923     0.0592    -0.0205 C.2     
   5 N5             2.3388     1.4081    -0.0127 N.pl3   
   6 N6             1.1129     2.0807     0.0026 N.2     
   7 O7            -1.0437    -0.6392     0.0090 O.2     
   8 N8             2.8821     3.3354     1.9513 N.ar    
   9 C9             3.1050     4.2291     2.8845 C.ar    
  10 C10            4.2760     4.9832     2.9118 C.ar    
  11 C11            5.2274     4.7994     1.9493 C.ar    
  12 C12            4.9841     3.8383     0.9494 C.ar    
  13 C13            5.9172     3.5954    -0.0713 C.ar    
  14 C14            5.6531     2.6585    -1.0244 C.ar    
  15 C15            4.4663     1.9329    -1.0057 C.ar    
  16 C16            3.5255     2.1427    -0.0201 C.ar    
  17 C17            3.7716     3.1071     0.9817 C.ar    
  18 O18            1.2969    -2.0315    -0.0208 O.3     
  19 C19            2.5934    -2.6320    -0.0364 C.3     
  20 N20           -1.2316     2.0989     0.0193 N.pl3   
  21 H21            3.3494    -0.4411    -0.0319 H       
  22 H22            2.3611     4.3849     3.6519 H       
  23 H23            4.4311     5.7127     3.6929 H       
  24 H24            6.1409     5.3755     1.9548 H       
  25 H25            6.8429     4.1507    -0.1009 H       
  26 H26            6.3755     2.4769    -1.8065 H       
  27 H27            4.2796     1.1960    -1.7729 H       
  28 H28            3.1304    -2.3140    -0.9301 H       
  29 H29            3.1477    -2.3230     0.8498 H       
  30 H30            2.4912    -3.7172    -0.0409 H       
  31 H31           -2.0663     1.6047     0.0205 H       
  32 H32           -1.2423     3.0688     0.0246 H       
@<TRIPOS>BOND
   1    1    2 1
   2    1    6 2
   3    1   20 1
   4    2    3 1
   5    2    7 2
   6    3    4 2
   7    3   18 1
   8    4    5 1
   9    4   21 1
  10    5    6 1
  11    5   16 1
  12    8    9 ar
  13    8   17 ar
  14    9   10 ar
  15    9   22 1
  16   10   11 ar
  17   10   23 1
  18   11   12 ar
  19   11   24 1
  20   12   13 ar
  21   12   17 ar
  22   13   14 ar
  23   13   25 1
  24   14   15 ar
  25   14   26 1
  26   15   16 ar
  27   15   27 1
  28   16   17 ar
  29   18   19 1
  30   19   28 1
  31   19   29 1
  32   19   30 1
  33   20   31 1
  34   20   32 1

#	End of record

