#	Name: ASD01915586
#	Creating user name:	WinNT
#	Creation time:	15. 06. 2019 20:05

#	Modifying user name:	WinNT
#	Modification time:	15. 06. 2019 20:05

#	Program:	/corina/corina34_cracker 3.40 0067  02.08.2006

@<TRIPOS>MOLECULE
ASD01915586
  39   42    0    0    0
SMALL
NO_CHARGES


@<TRIPOS>ATOM
   1 C1            -0.0043     1.4622     0.2154 C.2     
   2 N2             0.0609     0.1086    -0.0286 N.pl3   
   3 C3            -1.1522    -0.6757    -0.2896 C.3     
   4 C4            -2.3301    -0.0459     0.4520 C.3     
   5 N5            -2.4043     1.3988     0.2636 N.am    
   6 C6            -1.2914     2.1718     0.2654 C.2     
   7 C7             1.2787     1.8993     0.3896 C.2     
   8 C8             2.0743     0.7543     0.2495 C.2     
   9 N9             1.2805    -0.2632     0.0089 N.2     
  10 C10            3.5766     0.7006     0.3555 C.3     
  11 O11            4.0823     2.0098     0.6244 O.3     
  12 C12            5.4295     2.1370     0.7502 C.ar    
  13 O13           -1.3535     3.3858     0.3068 O.2     
  14 C14            5.9886     3.3795     1.0115 C.ar    
  15 C15            6.2474     1.0237     0.6233 C.ar    
  16 C16            7.6165     1.1557     0.7516 C.ar    
  17 C17            8.1718     2.3961     1.0063 C.ar    
  18 C18            7.3583     3.5062     1.1390 C.ar    
  19 C19           -3.6482     1.9976     0.0778 C.ar    
  20 C20           -4.8136     1.2702     0.3032 C.ar    
  21 N21           -5.9902     1.8413     0.1264 N.ar    
  22 C22           -6.0628     3.1024    -0.2642 C.ar    
  23 C23           -4.9074     3.8277    -0.4891 C.ar    
  24 N24           -3.7253     3.2641    -0.3092 N.ar    
  25 H25           -1.3578    -0.6824    -1.3600 H       
  26 H26           -1.0068    -1.6979     0.0599 H       
  27 H27           -3.2548    -0.4961     0.0910 H       
  28 H28           -2.2299    -0.2576     1.5165 H       
  29 H29            1.6080     2.9081     0.5909 H       
  30 H30            3.8599     0.0282     1.1653 H       
  31 H31            3.9942     0.3354    -0.5828 H       
  32 H32            5.3536     4.2470     1.1149 H       
  33 H33            5.8141     0.0546     0.4246 H       
  34 H34            8.2537     0.2892     0.6531 H       
  35 H35            9.2424     2.4972     1.1063 H       
  36 H36            7.7944     4.4741     1.3376 H       
  37 H37           -4.7549     0.2400     0.6220 H       
  38 H38           -7.0270     3.5670    -0.4084 H       
  39 H39           -4.9708     4.8576    -0.8081 H       
@<TRIPOS>BOND
   1    1    2 1
   2    1    7 2
   3    1    6 1
   4    2    3 1
   5    2    9 1
   6    3    4 1
   7    3   25 1
   8    3   26 1
   9    4    5 1
  10    4   27 1
  11    4   28 1
  12    5    6 am
  13    5   19 1
  14    6   13 2
  15    7    8 1
  16    7   29 1
  17    8    9 2
  18    8   10 1
  19   10   11 1
  20   10   30 1
  21   10   31 1
  22   11   12 1
  23   12   14 ar
  24   12   15 ar
  25   14   18 ar
  26   14   32 1
  27   15   16 ar
  28   15   33 1
  29   16   17 ar
  30   16   34 1
  31   17   18 ar
  32   17   35 1
  33   18   36 1
  34   19   20 ar
  35   19   24 ar
  36   20   21 ar
  37   20   37 1
  38   21   22 ar
  39   22   23 ar
  40   22   38 1
  41   23   24 ar
  42   23   39 1

#	End of record

