#	Name: ASD03430715
#	Creating user name:	WinNT
#	Creation time:	15. 06. 2019 20:41

#	Modifying user name:	WinNT
#	Modification time:	15. 06. 2019 20:41

#	Program:	/corina/corina34_cracker 3.40 0067  02.08.2006

@<TRIPOS>MOLECULE
ASD03430715
  58   64    0    0    0
SMALL
NO_CHARGES


@<TRIPOS>ATOM
   1 C1             2.6713     0.3817    -0.0008 C.ar    
   2 C2             2.1001    -0.8814    -0.0394 C.ar    
   3 C3             2.8864    -1.9923    -0.2581 C.ar    
   4 C4             4.2615    -1.8639    -0.4328 C.ar    
   5 C5             4.8306    -0.5953    -0.3976 C.ar    
   6 C6             4.0419     0.5227    -0.1816 C.ar    
   7 O7             4.8529    -3.0804    -0.6065 O.3     
   8 C8             2.5743    -3.4600    -0.3754 C.3     
   9 C9             3.8537    -4.0447    -0.9895 C.3     
  10 C10            0.9826    -4.6354     0.8103 C.ar    
  11 C11            2.2536    -4.0835     0.9504 C.ar    
  12 C12            1.3729    -3.7197    -1.2383 C.2     
  13 N13            0.4962    -4.4064    -0.4790 N.am    
  14 O14            1.2213    -3.3784    -2.3923 O.2     
  15 C15            2.9340    -4.1851     2.1438 C.ar    
  16 C16            2.3559    -4.8409     3.2178 C.ar    
  17 C17            1.0951    -5.3929     3.0888 C.ar    
  18 C18            0.4098    -5.2936     1.8954 C.ar    
  19 C19           -0.8145    -4.8598    -0.9510 C.3     
  20 O20            1.8787     1.4689     0.2086 O.3     
  21 C21            2.5356     2.6777     0.6054 C.3     
  22 C22            3.7566     2.8804    -0.3022 C.3     
  23 O23            4.6244     1.7529    -0.1454 O.3     
  24 Br24           4.6588    -3.4291     2.3154 Br      
  25 C25           -1.8978    -4.1892    -0.1461 C.ar    
  26 C26           -3.0413    -4.8887     0.1918 C.ar    
  27 C27           -4.0350    -4.2735     0.9300 C.ar    
  28 C28           -3.8851    -2.9590     1.3307 C.ar    
  29 C29           -2.7412    -2.2599     0.9936 C.ar    
  30 C30           -1.7456    -2.8764     0.2590 C.ar    
  31 C31           -0.9756    -4.5026    -2.4061 C.ar    
  32 C32           -0.9388    -5.4934    -3.3693 C.ar    
  33 C33           -1.0865    -5.1657    -4.7041 C.ar    
  34 C34           -1.2715    -3.8471    -5.0756 C.ar    
  35 C35           -1.3092    -2.8564    -4.1124 C.ar    
  36 C36           -1.1658    -3.1846    -2.7772 C.ar    
  37 H37            1.0355    -0.9952     0.1028 H       
  38 H38            5.8952    -0.4812    -0.5393 H       
  39 H39            3.7698    -4.1048    -2.0746 H       
  40 H40            4.0760    -5.0227    -0.5626 H       
  41 H41            2.8889    -4.9212     4.1537 H       
  42 H42            0.6444    -5.9048     3.9263 H       
  43 H43           -0.5747    -5.7277     1.8027 H       
  44 H44           -0.8896    -5.9407    -0.8317 H       
  45 H45            1.8526     3.5202     0.4964 H       
  46 H46            2.8584     2.5971     1.6434 H       
  47 H47            3.4345     2.9538    -1.3409 H       
  48 H48            4.2814     3.7913    -0.0143 H       
  49 H49           -3.1584    -5.9156    -0.1213 H       
  50 H50           -4.9286    -4.8198     1.1934 H       
  51 H51           -4.6617    -2.4782     1.9069 H       
  52 H52           -2.6242    -1.2328     1.3063 H       
  53 H53           -0.8503    -2.3313    -0.0012 H       
  54 H54           -0.7943    -6.5236    -3.0790 H       
  55 H55           -1.0571    -5.9398    -5.4566 H       
  56 H56           -1.3862    -3.5910    -6.1185 H       
  57 H57           -1.4534    -1.8262    -4.4027 H       
  58 H58           -1.1990    -2.4110    -2.0244 H       
@<TRIPOS>BOND
   1    1    2 ar
   2    1    6 ar
   3    1   20 1
   4    2    3 ar
   5    2   37 1
   6    3    4 ar
   7    3    8 1
   8    4    5 ar
   9    4    7 1
  10    5    6 ar
  11    5   38 1
  12    6   23 1
  13    7    9 1
  14    8    9 1
  15    8   11 1
  16    8   12 1
  17    9   39 1
  18    9   40 1
  19   10   11 ar
  20   10   13 1
  21   10   18 ar
  22   11   15 ar
  23   12   13 am
  24   12   14 2
  25   13   19 1
  26   15   16 ar
  27   15   24 1
  28   16   17 ar
  29   16   41 1
  30   17   18 ar
  31   17   42 1
  32   18   43 1
  33   19   25 1
  34   19   31 1
  35   19   44 1
  36   20   21 1
  37   21   22 1
  38   21   45 1
  39   21   46 1
  40   22   23 1
  41   22   47 1
  42   22   48 1
  43   25   26 ar
  44   25   30 ar
  45   26   27 ar
  46   26   49 1
  47   27   28 ar
  48   27   50 1
  49   28   29 ar
  50   28   51 1
  51   29   30 ar
  52   29   52 1
  53   30   53 1
  54   31   32 ar
  55   31   36 ar
  56   32   33 ar
  57   32   54 1
  58   33   34 ar
  59   33   55 1
  60   34   35 ar
  61   34   56 1
  62   35   36 ar
  63   35   57 1
  64   36   58 1

#	End of record

