#	Name: ASD07301014
#	Creating user name:	WinNT
#	Creation time:	15. 06. 2019 21:10

#	Modifying user name:	WinNT
#	Modification time:	15. 06. 2019 21:10

#	Program:	/corina/corina34_cracker 3.40 0067  02.08.2006

@<TRIPOS>MOLECULE
ASD07301014
  35   36    0    0    0
SMALL
NO_CHARGES


@<TRIPOS>ATOM
   1 C1            -0.0179     1.4670     0.0101 C.2     
   2 C2             0.0021    -0.0041     0.0020 C.2     
   3 C3             1.2725    -0.6350    -0.0135 C.2     
   4 C4             2.3716     0.1567    -0.0197 C.2     
   5 N5             2.2551     1.5068    -0.0114 N.pl3   
   6 N6             1.1273     2.1159     0.0027 N.2     
   7 O7            -1.0315    -0.6546     0.0088 O.2     
   8 C8             3.4246     2.2746    -0.0184 C.ar    
   9 C9             3.6383     3.2295     0.9711 C.ar    
  10 C10            4.7958     3.9860     0.9599 C.ar    
  11 C11            5.7389     3.7941    -0.0331 C.ar    
  12 C12            5.5288     2.8458    -1.0173 C.ar    
  13 C13            4.3779     2.0818    -1.0095 C.ar    
  14 F14            2.7163     3.4174     1.9406 F       
  15 C15           -1.3000     2.2026     0.0202 C.2     
  16 C16           -1.3038     3.6152     0.0279 C.2     
  17 C17           -2.4766     4.2880     0.0372 C.2     
  18 O18           -2.3535     1.5906     0.0219 O.2     
  19 N19           -2.4802     5.6533     0.0446 N.pl3   
  20 C20           -1.2135     6.3892     0.0426 C.3     
  21 C21           -3.7509     6.3823     0.0546 C.3     
  22 H22            1.3605    -1.7114    -0.0198 H       
  23 H23            3.3532    -0.2937    -0.0312 H       
  24 H24            4.9633     4.7275     1.7271 H       
  25 H25            6.6419     4.3866    -0.0401 H       
  26 H26            6.2678     2.6990    -1.7910 H       
  27 H27            4.2176     1.3383    -1.7762 H       
  28 H28           -0.3700     4.1577     0.0264 H       
  29 H29           -3.4104     3.7455     0.0387 H       
  30 H30           -0.9043     6.5773    -0.9856 H       
  31 H31           -1.3440     7.3385     0.5622 H       
  32 H32           -0.4498     5.7994     0.5496 H       
  33 H33           -4.5775     5.6717     0.0547 H       
  34 H34           -3.8061     7.0039     0.9483 H       
  35 H35           -3.8146     7.0136    -0.8316 H       
@<TRIPOS>BOND
   1    1    2 1
   2    1    6 2
   3    1   15 1
   4    2    3 1
   5    2    7 2
   6    3    4 2
   7    3   22 1
   8    4    5 1
   9    4   23 1
  10    5    6 1
  11    5    8 1
  12    8    9 ar
  13    8   13 ar
  14    9   10 ar
  15    9   14 1
  16   10   11 ar
  17   10   24 1
  18   11   12 ar
  19   11   25 1
  20   12   13 ar
  21   12   26 1
  22   13   27 1
  23   15   16 1
  24   15   18 2
  25   16   17 2
  26   16   28 1
  27   17   19 1
  28   17   29 1
  29   19   20 1
  30   19   21 1
  31   20   30 1
  32   20   31 1
  33   20   32 1
  34   21   33 1
  35   21   34 1
  36   21   35 1

#	End of record

