#	Name: ASD07930594
#	Creating user name:	WinNT
#	Creation time:	15. 06. 2019 21:12

#	Modifying user name:	WinNT
#	Modification time:	15. 06. 2019 21:12

#	Program:	/corina/corina34_cracker 3.40 0067  02.08.2006

@<TRIPOS>MOLECULE
ASD07930594
  51   53    0    0    0
SMALL
NO_CHARGES


@<TRIPOS>ATOM
   1 C1             1.3698     0.7537    -1.5458 C.3     
   2 N2             2.3132    -2.0764    -1.4377 N.2     
   3 N3             0.0353    -2.5811    -1.3053 N.pl3   
   4 C4            -0.8997    -2.7420    -0.1868 C.3     
   5 C5            -1.5449    -1.3864     0.1325 C.3     
   6 S6            -0.2174    -0.1882     0.4736 S.o2    
   7 N7             0.8031    -0.3908    -0.8280 N.am    
   8 C8             1.0893    -1.6970    -1.1986 C.2     
   9 C9            -0.1433    -3.2500     1.0423 C.3     
  10 C10           -1.9707    -3.7326    -0.5647 C.ar    
  11 C11           -1.6888    -4.7462    -1.4619 C.ar    
  12 C12           -2.6775    -5.6602    -1.8104 C.ar    
  13 C13           -3.9454    -5.5527    -1.2565 C.ar    
  14 C14           -4.2234    -4.5370    -0.3592 C.ar    
  15 C15           -3.2347    -3.6304    -0.0089 C.ar    
  16 O16           -0.6960     1.1439     0.3487 O.2     
  17 O17            0.5517    -0.5941     1.5975 O.2     
  18 F18           -3.5080    -2.6396     0.8679 F       
  19 N19           -2.3941    -6.6873    -2.7193 N.am    
  20 C20           -3.3898    -7.2498    -3.4324 C.2     
  21 O21           -4.5174    -6.8012    -3.3607 O.2     
  22 C22           -3.1108    -8.4127    -4.3021 C.ar    
  23 N23           -1.8756    -8.9047    -4.3811 N.ar    
  24 N24           -3.8909   -10.0372    -5.8120 N.ar    
  25 C25           -4.1417    -8.9988    -5.0358 C.ar    
  26 C26           -1.6282    -9.9394    -5.1552 C.ar    
  27 C27           -2.6592   -10.5217    -5.8941 C.ar    
  28 O28           -2.4028   -11.5872    -6.6908 O.3     
  29 F29           -0.4538    -4.8485    -2.0001 F       
  30 F30           -5.4576    -4.4317     0.1800 F       
  31 C31           -3.5047   -12.1332    -7.4186 C.3     
  32 C32           -3.0248   -13.3204    -8.2560 C.3     
  33 H33            2.3189     1.0350    -1.0896 H       
  34 H34            1.5342     0.4831    -2.5889 H       
  35 H35            0.6780     1.5943    -1.4932 H       
  36 H36            3.0422    -1.4415    -1.3575 H       
  37 H37           -0.0848    -3.0982    -2.1171 H       
  38 H38           -2.1336    -1.0495    -0.7208 H       
  39 H39           -2.1873    -1.4822     1.0078 H       
  40 H40            0.6915    -2.5828     1.2566 H       
  41 H41           -0.8171    -3.2755     1.8987 H       
  42 H42            0.2345    -4.2537     0.8473 H       
  43 H43           -4.7147    -6.2612    -1.5261 H       
  44 H44           -1.4812    -6.9938    -2.8357 H       
  45 H45           -5.1447    -8.6039    -4.9690 H       
  46 H46           -0.6266   -10.3382    -5.2191 H       
  47 H47           -4.2716   -12.4677    -6.7200 H       
  48 H48           -3.9202   -11.3694    -8.0759 H       
  49 H49           -3.8653   -13.7369    -8.8112 H       
  50 H50           -2.2579   -12.9859    -8.9546 H       
  51 H51           -2.6093   -14.0843    -7.5987 H       
@<TRIPOS>BOND
   1    1    7 1
   2    1   33 1
   3    1   34 1
   4    1   35 1
   5    2    8 2
   6    2   36 1
   7    3    4 1
   8    3    8 1
   9    3   37 1
  10    4    5 1
  11    4    9 1
  12    4   10 1
  13    5    6 1
  14    5   38 1
  15    5   39 1
  16    6    7 am
  17    6   16 2
  18    6   17 2
  19    7    8 1
  20    9   40 1
  21    9   41 1
  22    9   42 1
  23   10   11 ar
  24   10   15 ar
  25   11   12 ar
  26   11   29 1
  27   12   13 ar
  28   12   19 1
  29   13   14 ar
  30   13   43 1
  31   14   15 ar
  32   14   30 1
  33   15   18 1
  34   19   20 am
  35   19   44 1
  36   20   21 2
  37   20   22 1
  38   22   23 ar
  39   22   25 ar
  40   23   26 ar
  41   24   25 ar
  42   24   27 ar
  43   25   45 1
  44   26   27 ar
  45   26   46 1
  46   27   28 1
  47   28   31 1
  48   31   32 1
  49   31   47 1
  50   31   48 1
  51   32   49 1
  52   32   50 1
  53   32   51 1

#	End of record

