#	Name: ASD03091556
#	Creating user name:	WinNT
#	Creation time:	15. 06. 2019 20:30

#	Modifying user name:	WinNT
#	Modification time:	15. 06. 2019 20:30

#	Program:	/corina/corina34_cracker 3.40 0067  02.08.2006

@<TRIPOS>MOLECULE
ASD03091556
  17   17    0    0    0
SMALL
NO_CHARGES


@<TRIPOS>ATOM
   1 C1            -0.0178     1.4636     0.0101 C.2     
   2 C2             0.0021    -0.0041     0.0020 C.ar    
   3 C3            -1.2020    -0.7276     0.0096 C.ar    
   4 C4            -1.1696    -2.1137     0.0014 C.ar    
   5 C5             0.0408    -2.7783    -0.0142 C.ar    
   6 C6             1.2314    -2.0693    -0.0213 C.ar    
   7 C7             1.2209    -0.6921    -0.0192 C.ar    
   8 O8             1.0243     2.0844     0.0035 O.2     
   9 N9             0.0666    -4.2582    -0.0229 N.pl3   
  10 O10           -0.9774    -4.8856    -0.0163 O.2     
  11 O11            1.1318    -4.8487    -0.0367 O.2     
  12 O12           -2.3899    -0.0738     0.0254 O.3     
  13 H13           -0.9604     1.9909     0.0174 H       
  14 H14           -2.0926    -2.6746     0.0075 H       
  15 H15            2.1723    -2.5993    -0.0332 H       
  16 H16            2.1514    -0.1440    -0.0297 H       
  17 H17           -2.7432     0.1212    -0.8534 H       
@<TRIPOS>BOND
   1    1    2 1
   2    1    8 2
   3    1   13 1
   4    2    3 ar
   5    2    7 ar
   6    3    4 ar
   7    3   12 1
   8    4    5 ar
   9    4   14 1
  10    5    6 ar
  11    5    9 1
  12    6    7 ar
  13    6   15 1
  14    7   16 1
  15    9   10 2
  16    9   11 2
  17   12   17 1

#	End of record

