#	Name: ASD01230307
#	Creating user name:	WinNT
#	Creation time:	15. 06. 2019 19:14

#	Modifying user name:	WinNT
#	Modification time:	15. 06. 2019 19:14

#	Program:	/corina/corina34_cracker 3.40 0067  02.08.2006

@<TRIPOS>MOLECULE
ASD01230307
  33   34    0    0    0
SMALL
NO_CHARGES


@<TRIPOS>ATOM
   1 C1            -1.3895     1.3289     1.2407 C.ar    
   2 C2            -1.1074    -0.0375     1.1904 C.ar    
   3 C3            -0.7731    -0.6987     2.3630 C.ar    
   4 C4            -0.7326     0.0295     3.5449 C.ar    
   5 C5            -1.0234     1.3781     3.5192 C.ar    
   6 N6            -1.3388     1.9836     2.3890 N.ar    
   7 N7            -1.7211     2.0090     0.0721 N.pl3   
   8 O8            -1.1601    -0.7101     0.0097 O.3     
   9 C9            -0.9835    -2.0571     0.0345 C.ar    
  10 C10           -2.0730    -2.8978     0.2127 C.ar    
  11 C11           -1.8908    -4.2669     0.2370 C.ar    
  12 C12           -0.6240    -4.7997     0.0845 C.ar    
  13 C13            0.4634    -3.9643    -0.0928 C.ar    
  14 C14            0.2859    -2.5947    -0.1241 C.ar    
  15 C15           -0.4281    -6.2937     0.1119 C.3     
  16 C16            0.1789    -6.7530    -1.2153 C.3     
  17 C17            0.5145    -6.6635     1.2589 C.3     
  18 H18           -0.5499    -1.7554     2.3571 H       
  19 H19           -0.4761    -0.4552     4.4753 H       
  20 H20           -0.9929     1.9465     4.4370 H       
  21 H21           -1.7555     1.5335    -0.7726 H       
  22 H22           -1.9178     2.9584     0.1027 H       
  23 H23           -3.0625    -2.4821     0.3327 H       
  24 H24           -2.7384    -4.9216     0.3757 H       
  25 H25            1.4519    -4.3830    -0.2114 H       
  26 H26            1.1350    -1.9428    -0.2670 H       
  27 H27           -1.3905    -6.7836     0.2602 H       
  28 H28            1.1412    -6.2630    -1.3636 H       
  29 H29            0.3205    -7.8335    -1.1955 H       
  30 H30           -0.4927    -6.4895    -2.0324 H       
  31 H31            0.0821    -6.3363     2.2044 H       
  32 H32            0.6562    -7.7441     1.2787 H       
  33 H33            1.4768    -6.1736     1.1106 H       
@<TRIPOS>BOND
   1    1    2 ar
   2    1    6 ar
   3    1    7 1
   4    2    3 ar
   5    2    8 1
   6    3    4 ar
   7    3   18 1
   8    4    5 ar
   9    4   19 1
  10    5    6 ar
  11    5   20 1
  12    7   21 1
  13    7   22 1
  14    8    9 1
  15    9   10 ar
  16    9   14 ar
  17   10   11 ar
  18   10   23 1
  19   11   12 ar
  20   11   24 1
  21   12   13 ar
  22   12   15 1
  23   13   14 ar
  24   13   25 1
  25   14   26 1
  26   15   16 1
  27   15   17 1
  28   15   27 1
  29   16   28 1
  30   16   29 1
  31   16   30 1
  32   17   31 1
  33   17   32 1
  34   17   33 1

#	End of record

