#	Name: ASD01883745
#	Creating user name:	WinNT
#	Creation time:	15. 06. 2019 19:47

#	Modifying user name:	WinNT
#	Modification time:	15. 06. 2019 19:47

#	Program:	/corina/corina34_cracker 3.40 0067  02.08.2006

@<TRIPOS>MOLECULE
ASD01883745
  47   50    0    0    0
SMALL
NO_CHARGES


@<TRIPOS>ATOM
   1 C1            -0.3879     0.7580    -1.0877 C.2     
   2 C2             0.0021    -0.0041     0.0020 C.2     
   3 C3            -0.8459    -0.0688     1.1283 C.2     
   4 C4            -2.0139     0.6066     1.1274 C.2     
   5 N5            -2.3889     1.3521     0.0538 N.am    
   6 C6            -1.6061     1.4438    -1.0371 C.2     
   7 C7            -3.6641     2.0725     0.0875 C.3     
   8 C8            -3.4442     3.4721     0.6650 C.3     
   9 O9            -1.9646     2.1198    -1.9892 O.2     
  10 Cl10           0.6248     0.8660    -2.4936 Cl      
  11 N11            1.2035    -0.6910    -0.0141 N.pl3   
  12 C12            1.4150    -2.1544     0.0779 C.3     
  13 C13            2.6594    -2.3125     0.9779 C.3     
  14 C14            3.4209    -0.9775     0.8427 C.3     
  15 C15            2.5695    -0.1301    -0.1336 C.3     
  16 C16            2.7976    -1.3780     2.1814 C.3     
  17 C17           -4.7760     4.2244     0.7002 C.3     
  18 C18           -4.5560     5.6240     1.2778 C.3     
  19 C19            3.7335    -1.8001     3.2846 C.ar    
  20 C20            3.2508    -1.9880     4.5662 C.ar    
  21 C21            4.1093    -2.3751     5.5782 C.ar    
  22 C22            5.4503    -2.5748     5.3084 C.ar    
  23 C23            5.9327    -2.3877     4.0266 C.ar    
  24 C24            5.0735    -2.0048     3.0137 C.ar    
  25 H25            1.9072    -0.8375     2.5026 H       
  26 H26           -0.5610    -0.6573     1.9879 H       
  27 H27           -2.6601     0.5541     1.9912 H       
  28 H28           -4.0615     2.1552    -0.9241 H       
  29 H29           -4.3723     1.5286     0.7126 H       
  30 H30           -3.0468     3.3894     1.6766 H       
  31 H31           -2.7361     4.0160     0.0398 H       
  32 H32            0.5508    -2.6352     0.5363 H       
  33 H33            1.6047    -2.5739    -0.9101 H       
  34 H34            3.1771    -3.2717     0.9800 H       
  35 H35            4.5059    -0.9422     0.7442 H       
  36 H36            2.9424    -0.2351    -1.1525 H       
  37 H37            2.5750     0.9173     0.1680 H       
  38 H38           -5.1734     4.3071    -0.3114 H       
  39 H39           -5.4841     3.6805     1.3254 H       
  40 H40           -5.5049     6.1599     1.3028 H       
  41 H41           -4.1587     5.5413     2.2894 H       
  42 H42           -3.8479     6.1679     0.6526 H       
  43 H43            2.2031    -1.8320     4.7770 H       
  44 H44            3.7323    -2.5213     6.5797 H       
  45 H45            6.1211    -2.8765     6.0992 H       
  46 H46            6.9805    -2.5433     3.8159 H       
  47 H47            5.4504    -1.8586     2.0122 H       
@<TRIPOS>BOND
   1    1    2 2
   2    1   10 1
   3    1    6 1
   4    2    3 1
   5    2   11 1
   6    3    4 2
   7    3   26 1
   8    4    5 1
   9    4   27 1
  10    5    6 am
  11    5    7 1
  12    6    9 2
  13    7    8 1
  14    7   28 1
  15    7   29 1
  16    8   17 1
  17    8   30 1
  18    8   31 1
  19   11   12 1
  20   11   15 1
  21   12   13 1
  22   12   32 1
  23   12   33 1
  24   13   14 1
  25   13   16 1
  26   13   34 1
  27   14   16 1
  28   14   15 1
  29   14   35 1
  30   15   36 1
  31   15   37 1
  32   16   19 1
  33   16   25 1
  34   17   18 1
  35   17   38 1
  36   17   39 1
  37   18   40 1
  38   18   41 1
  39   18   42 1
  40   19   20 ar
  41   19   24 ar
  42   20   21 ar
  43   20   43 1
  44   21   22 ar
  45   21   44 1
  46   22   23 ar
  47   22   45 1
  48   23   24 ar
  49   23   46 1
  50   24   47 1

#	End of record

