#	Name: ASD03912047
#	Creating user name:	WinNT
#	Creation time:	15. 06. 2019 20:47

#	Modifying user name:	WinNT
#	Modification time:	15. 06. 2019 20:47

#	Program:	/corina/corina34_cracker 3.40 0067  02.08.2006

@<TRIPOS>MOLECULE
ASD03912047
  71   73    0    0    0
SMALL
NO_CHARGES


@<TRIPOS>ATOM
   1 C1             2.4129    15.3900    -5.8497 C.ar    
   2 C2             3.6473    16.0020    -5.9682 C.ar    
   3 C3             4.7745    15.3995    -5.4403 C.ar    
   4 C4             4.6707    14.1837    -4.7933 C.ar    
   5 C5             3.4325    13.5666    -4.6726 C.ar    
   6 C6             2.3014    14.1772    -5.1984 C.ar    
   7 C7             1.1871    16.0502    -6.4264 C.3     
   8 C8             6.1178    16.0699    -5.5717 C.3     
   9 N9             3.3239    12.3349    -4.0176 N.am    
  10 C10            2.2110    12.0401    -3.3169 C.2     
  11 C11            2.0448    10.6721    -2.7070 C.3     
  12 O12            1.3432    12.8758    -3.1771 O.2     
  13 C13            0.7885    10.6420    -1.8753 C.ar    
  14 C14           -0.3934    10.1828    -2.4267 C.ar    
  15 C15           -1.5465    10.1543    -1.6664 C.ar    
  16 C16           -1.5179    10.5870    -0.3486 C.ar    
  17 C17           -0.3307    11.0473     0.2023 C.ar    
  18 C18            0.8208    11.0685    -0.5605 C.ar    
  19 O19           -2.6509    10.5603     0.4013 O.3     
  20 C20           -2.5698    11.1071     1.7191 C.3     
  21 C21           -1.6138    10.2966     2.5559 C.2     
  22 C22           -2.1023    12.5716     1.6542 C.3     
  23 C23           -3.2316    13.4225     2.2712 C.3     
  24 C24           -3.9926    12.4347     3.1900 C.3     
  25 C25           -3.9666    11.1178     2.3737 C.3     
  26 N26           -1.5708     8.9562     2.4221 N.am    
  27 O27           -0.8831    10.8505     3.3497 O.2     
  28 C28           -0.7224     8.1582     3.3107 C.3     
  29 C29           -1.4425     7.9205     4.6130 C.2     
  30 O30           -2.5507     8.3714     4.7815 O.2     
  31 O31           -0.8528     7.2078     5.5856 O.3     
  32 C32           -0.4107     6.8150     2.6477 C.3     
  33 C33            0.1743     7.0573     1.2548 C.3     
  34 C34            0.6026     6.0484     3.5001 C.3     
  35 C35           -1.6972     5.9960     2.5251 C.3     
  36 H36            3.7312    16.9523    -6.4743 H       
  37 H37            5.5515    13.7133    -4.3819 H       
  38 H38            1.3370    13.7000    -5.1059 H       
  39 H39            1.0479    15.7214    -7.4563 H       
  40 H40            0.3137    15.7739    -5.8357 H       
  41 H41            1.3130    17.1327    -6.4044 H       
  42 H42            6.2852    16.7194    -4.7126 H       
  43 H43            6.8998    15.3117    -5.6120 H       
  44 H44            6.1397    16.6634    -6.4857 H       
  45 H45            4.0495    11.6932    -4.0679 H       
  46 H46            1.9738     9.9271    -3.4996 H       
  47 H47            2.9044    10.4492    -2.0749 H       
  48 H48           -0.4152     9.8464    -3.4528 H       
  49 H49           -2.4695     9.7958    -2.0976 H       
  50 H50           -0.3059    11.3846     1.2280 H       
  51 H51            1.7453    11.4268    -0.1321 H       
  52 H52           -1.1844    12.6964     2.2287 H       
  53 H53           -1.9373    12.8654     0.6176 H       
  54 H54           -2.8152    14.2432     2.8552 H       
  55 H55           -3.8912    13.8038     1.4917 H       
  56 H56           -3.4714    12.3104     4.1392 H       
  57 H57           -5.0174    12.7690     3.3518 H       
  58 H58           -4.7449    11.1267     1.6106 H       
  59 H59           -4.0870    10.2580     3.0327 H       
  60 H60           -2.1016     8.5198     1.7374 H       
  61 H61            0.2077     8.6933     3.5022 H       
  62 H62           -1.3538     7.0819     6.4030 H       
  63 H63            1.0908     7.6407     1.3421 H       
  64 H64            0.3963     6.1004     0.7825 H       
  65 H65           -0.5476     7.6034     0.6476 H       
  66 H66            0.1858     5.8758     4.4924 H       
  67 H67            0.8246     5.0915     3.0277 H       
  68 H68            1.5191     6.6319     3.5874 H       
  69 H69           -2.4450     6.5733     1.9813 H       
  70 H70           -1.4895     5.0715     1.9864 H       
  71 H71           -2.0738     5.7599     3.5204 H       
@<TRIPOS>BOND
   1    1    2 ar
   2    1    7 1
   3    1    6 ar
   4    2    3 ar
   5    2   36 1
   6    3    4 ar
   7    3    8 1
   8    4    5 ar
   9    4   37 1
  10    5    6 ar
  11    5    9 1
  12    6   38 1
  13    7   39 1
  14    7   40 1
  15    7   41 1
  16    8   42 1
  17    8   43 1
  18    8   44 1
  19    9   10 am
  20    9   45 1
  21   10   11 1
  22   10   12 2
  23   11   13 1
  24   11   46 1
  25   11   47 1
  26   13   14 ar
  27   13   18 ar
  28   14   15 ar
  29   14   48 1
  30   15   16 ar
  31   15   49 1
  32   16   17 ar
  33   16   19 1
  34   17   18 ar
  35   17   50 1
  36   18   51 1
  37   19   20 1
  38   20   21 1
  39   20   22 1
  40   20   25 1
  41   21   26 am
  42   21   27 2
  43   22   23 1
  44   22   52 1
  45   22   53 1
  46   23   24 1
  47   23   54 1
  48   23   55 1
  49   24   25 1
  50   24   56 1
  51   24   57 1
  52   25   58 1
  53   25   59 1
  54   26   28 1
  55   26   60 1
  56   28   29 1
  57   28   32 1
  58   28   61 1
  59   29   30 2
  60   29   31 1
  61   31   62 1
  62   32   33 1
  63   32   34 1
  64   32   35 1
  65   33   63 1
  66   33   64 1
  67   33   65 1
  68   34   66 1
  69   34   67 1
  70   34   68 1
  71   35   69 1
  72   35   70 1
  73   35   71 1

#	End of record

