#	Name: ASD01870407
#	Creating user name:	WinNT
#	Creation time:	15. 06. 2019 19:39

#	Modifying user name:	WinNT
#	Modification time:	15. 06. 2019 19:39

#	Program:	/corina/corina34_cracker 3.40 0067  02.08.2006

@<TRIPOS>MOLECULE
ASD01870407
  29   31    0    0    0
SMALL
NO_CHARGES


@<TRIPOS>ATOM
   1 C1            -0.0162     1.3436     0.0094 C.2     
   2 N2             0.0021    -0.0041     0.0020 N.am    
   3 O3             1.0291     1.9662     0.0028 O.2     
   4 C4             1.2111    -0.6803    -0.0132 C.2     
   5 O5             2.4266    -0.1115    -0.0212 O.3     
   6 C6             3.3443    -1.1020    -0.0355 C.2     
   7 C7             2.6750    -2.2648    -0.0360 C.2     
   8 N8             1.3589    -1.9818    -0.0163 N.2     
   9 C9            -1.2978     2.0605     0.0194 C.2     
  10 C10            3.2872    -3.6419    -0.0496 C.3     
  11 C11           -2.5439     1.5055     0.0228 C.2     
  12 N12           -3.4812     2.4836     0.0328 N.pl3   
  13 C13           -2.8809     3.7259     0.0365 C.ar    
  14 C14           -1.4915     3.5222     0.0342 C.ar    
  15 C15           -0.6258     4.6126     0.0427 C.ar    
  16 C16           -1.1395     5.8912     0.0566 C.ar    
  17 C17           -2.5116     6.0942     0.0623 C.ar    
  18 C18           -3.3798     5.0240     0.0461 C.ar    
  19 H19           -0.8313    -0.5005     0.0073 H       
  20 H20            4.4174    -0.9807    -0.0452 H       
  21 H21            3.4443    -3.9798     0.9747 H       
  22 H22            2.6167    -4.3324    -0.5612 H       
  23 H23            4.2432    -3.6093    -0.5722 H       
  24 H24           -2.7520     0.4457     0.0178 H       
  25 H25           -4.4392     2.3319     0.0366 H       
  26 H26            0.4429     4.4571     0.0387 H       
  27 H27           -0.4706     6.7392     0.0636 H       
  28 H28           -2.9034     7.1006     0.0732 H       
  29 H29           -4.4465     5.1932     0.0525 H       
@<TRIPOS>BOND
   1    1    2 am
   2    1    3 2
   3    1    9 1
   4    2    4 1
   5    2   19 1
   6    4    5 1
   7    4    8 2
   8    5    6 1
   9    6    7 2
  10    6   20 1
  11    7    8 1
  12    7   10 1
  13    9   11 2
  14    9   14 1
  15   10   21 1
  16   10   22 1
  17   10   23 1
  18   11   12 1
  19   11   24 1
  20   12   13 1
  21   12   25 1
  22   13   18 ar
  23   13   14 ar
  24   14   15 ar
  25   15   16 ar
  26   15   26 1
  27   16   17 ar
  28   16   27 1
  29   17   18 ar
  30   17   28 1
  31   18   29 1

#	End of record

