#	Name: ASD01880906
#	Creating user name:	WinNT
#	Creation time:	15. 06. 2019 19:41

#	Modifying user name:	WinNT
#	Modification time:	15. 06. 2019 19:41

#	Program:	/corina/corina34_cracker 3.40 0067  02.08.2006

@<TRIPOS>MOLECULE
ASD01880906
  44   46    0    0    0
SMALL
NO_CHARGES


@<TRIPOS>ATOM
   1 N1            -0.0158     1.3130     0.0093 N.ar    
   2 C2             0.0021    -0.0041     0.0020 C.ar    
   3 N3             1.1302    -0.6850    -0.0120 N.ar    
   4 C4             2.3048    -0.0610    -0.0198 C.ar    
   5 C5             2.3313     1.3279    -0.0131 C.ar    
   6 C6             1.1181     2.0110     0.0022 C.ar    
   7 C7             3.6395     2.0760    -0.0210 C.3     
   8 O8             4.0409     2.3193    -1.3708 O.3     
   9 C9             5.2072     2.9881    -1.5557 C.ar    
  10 C10            5.6567     3.2582    -2.8446 C.ar    
  11 C11            6.8364     3.9352    -3.0303 C.ar    
  12 C12            7.5915     4.3563    -1.9306 C.ar    
  13 C13            7.1352     4.0827    -0.6382 C.ar    
  14 C14            5.9486     3.4075    -0.4576 C.ar    
  15 C15            7.5902     4.3789    -4.2592 C.3     
  16 N16            8.7948     5.0634    -3.7761 N.am    
  17 C17            8.7915     5.0481    -2.4322 C.2     
  18 O18            9.6559     5.5362    -1.7301 O.2     
  19 C19            7.9384     4.5298     0.5560 C.3     
  20 N20            1.0911     3.3968     0.0090 N.pl3   
  21 C21            9.4752     7.1254    -4.9015 C.3     
  22 C22            9.8308     5.6643    -4.6198 C.3     
  23 O23            3.4597    -0.7704    -0.0338 O.3     
  24 C24            3.3461    -2.1949    -0.0394 C.3     
  25 H25           -0.9348    -0.5413     0.0081 H       
  26 H26            3.5177     3.0264     0.4987 H       
  27 H27            4.4013     1.4812     0.4830 H       
  28 H28            5.0785     2.9354    -3.6977 H       
  29 H29            5.5964     3.1967     0.5414 H       
  30 H30            7.8670     3.5137    -4.8616 H       
  31 H31            6.9793     5.0648    -4.8461 H       
  32 H32            7.6222     5.5298     0.8528 H       
  33 H33            7.7769     3.8375     1.3823 H       
  34 H34            8.9970     4.5454     0.2967 H       
  35 H35            1.9215     3.8981     0.0031 H       
  36 H36            0.2418     3.8653     0.0196 H       
  37 H37            8.5151     7.1731    -5.4155 H       
  38 H38            9.4110     7.6717    -3.9605 H       
  39 H39           10.2460     7.5725    -5.5293 H       
  40 H40           10.7908     5.6166    -4.1058 H       
  41 H41            9.8950     5.1180    -5.5609 H       
  42 H42            4.3416    -2.6387    -0.0507 H       
  43 H43            2.8132    -2.5204     0.8540 H       
  44 H44            2.7968    -2.5120    -0.9259 H       
@<TRIPOS>BOND
   1    1    2 ar
   2    1    6 ar
   3    2    3 ar
   4    2   25 1
   5    3    4 ar
   6    4    5 ar
   7    4   23 1
   8    5    6 ar
   9    5    7 1
  10    6   20 1
  11    7    8 1
  12    7   26 1
  13    7   27 1
  14    8    9 1
  15    9   10 ar
  16    9   14 ar
  17   10   11 ar
  18   10   28 1
  19   11   12 ar
  20   11   15 1
  21   12   13 ar
  22   12   17 1
  23   13   14 ar
  24   13   19 1
  25   14   29 1
  26   15   16 1
  27   15   30 1
  28   15   31 1
  29   16   17 am
  30   16   22 1
  31   17   18 2
  32   19   32 1
  33   19   33 1
  34   19   34 1
  35   20   35 1
  36   20   36 1
  37   21   22 1
  38   21   37 1
  39   21   38 1
  40   21   39 1
  41   22   40 1
  42   22   41 1
  43   23   24 1
  44   24   42 1
  45   24   43 1
  46   24   44 1

#	End of record

