#	Name: ASD03731834
#	Creating user name:	WinNT
#	Creation time:	15. 06. 2019 20:46

#	Modifying user name:	WinNT
#	Modification time:	15. 06. 2019 20:46

#	Program:	/corina/corina34_cracker 3.40 0067  02.08.2006

@<TRIPOS>MOLECULE
ASD03731834
  36   37    0    0    0
SMALL
NO_CHARGES


@<TRIPOS>ATOM
   1 C1            -0.1573     1.4665     0.0377 C.2     
   2 C2            -0.1007    -0.0069     0.0223 C.ar    
   3 C3             1.1262    -0.6608    -0.1435 C.ar    
   4 C4             1.1735    -2.0402    -0.1567 C.ar    
   5 C5             0.0067    -2.7780    -0.0062 C.ar    
   6 C6            -1.2145    -2.1312     0.1584 C.ar    
   7 C7            -1.2710    -0.7553     0.1790 C.ar    
   8 O8             0.8626     2.1155    -0.0938 O.2     
   9 N9            -1.3402     2.0938     0.1919 N.am    
  10 S10           -1.4038     3.7485     0.2092 S.o2    
  11 O11           -2.7788     4.0442     0.4120 O.2     
  12 O12           -0.4241     4.1269     1.1664 O.2     
  13 C13           -0.8866     4.2388    -1.4590 C.3     
  14 O14            0.0574    -4.1342    -0.0202 O.3     
  15 C15           -0.1542    -4.7683    -1.2032 C.ar    
  16 C16           -0.0491    -6.1500    -1.2797 C.ar    
  17 C17           -0.2646    -6.7921    -2.4834 C.ar    
  18 C18           -0.5849    -6.0595    -3.6117 C.ar    
  19 C19           -0.6899    -4.6829    -3.5383 C.ar    
  20 C20           -0.4813    -4.0362    -2.3353 C.ar    
  21 C21            0.3005    -6.9490    -0.0507 C.3     
  22 F22            2.2613     0.0569    -0.2908 F       
  23 Cl23          -2.6688    -3.0608     0.3452 Cl      
  24 H24            2.1190    -2.5462    -0.2845 H       
  25 H25           -2.2190    -0.2550     0.3113 H       
  26 H26           -2.1542     1.5760     0.2927 H       
  27 H27           -1.5719     3.8128    -2.1918 H       
  28 H28           -0.8992     5.3258    -1.5385 H       
  29 H29            0.1222     3.8723    -1.6490 H       
  30 H30           -0.1826    -7.8673    -2.5436 H       
  31 H31           -0.7531    -6.5635    -4.5519 H       
  32 H32           -0.9395    -4.1130    -4.4210 H       
  33 H33           -0.5684    -2.9613    -2.2773 H       
  34 H34           -0.6138    -7.2302     0.4720 H       
  35 H35            0.8425    -7.8481    -0.3439 H       
  36 H36            0.9254    -6.3467     0.6086 H       
@<TRIPOS>BOND
   1    1    2 1
   2    1    8 2
   3    1    9 am
   4    2    3 ar
   5    2    7 ar
   6    3    4 ar
   7    3   22 1
   8    4    5 ar
   9    4   24 1
  10    5    6 ar
  11    5   14 1
  12    6    7 ar
  13    6   23 1
  14    7   25 1
  15    9   10 am
  16    9   26 1
  17   10   11 2
  18   10   12 2
  19   10   13 1
  20   13   27 1
  21   13   28 1
  22   13   29 1
  23   14   15 1
  24   15   16 ar
  25   15   20 ar
  26   16   17 ar
  27   16   21 1
  28   17   18 ar
  29   17   30 1
  30   18   19 ar
  31   18   31 1
  32   19   20 ar
  33   19   32 1
  34   20   33 1
  35   21   34 1
  36   21   35 1
  37   21   36 1

#	End of record

