#	Name: ASD04882087
#	Creating user name:	WinNT
#	Creation time:	15. 06. 2019 20:54

#	Modifying user name:	WinNT
#	Modification time:	15. 06. 2019 20:54

#	Program:	/corina/corina34_cracker 3.40 0067  02.08.2006

@<TRIPOS>MOLECULE
ASD04882087
  83   87    0    0    0
SMALL
NO_CHARGES


@<TRIPOS>ATOM
   1 C1             2.2103     1.8335    -0.7748 C.ar    
   2 C2             2.2496     0.4560    -0.6883 C.ar    
   3 C3             1.0694    -0.2637    -0.5489 C.ar    
   4 C4            -0.1464     0.4057    -0.4969 C.ar    
   5 C5            -0.1786     1.7838    -0.5840 C.ar    
   6 C6             0.9978     2.4969    -0.7227 C.ar    
   7 C7            -1.4292    -0.3708    -0.3462 C.3     
   8 N8             1.1056    -1.6572    -0.4616 N.3     
   9 C9             0.6892    -2.1123     0.8723 C.3     
  10 C10            2.4406    -2.1715    -0.7974 C.3     
  11 C11            2.4173    -3.7015    -0.7676 C.3     
  12 N12            2.0010    -4.1566     0.5663 N.3     
  13 C13            0.6659    -3.6423     0.9021 C.3     
  14 C14            2.0370    -5.5458     0.6533 C.ar    
  15 C15            1.2536    -6.3151    -0.1990 C.ar    
  16 C16            2.8652    -6.1650     1.5939 C.ar    
  17 C17            2.9008    -7.5434     1.6801 C.ar    
  18 C18            2.1076    -8.3149     0.8255 C.ar    
  19 C19            1.2862    -7.6898    -0.1163 C.ar    
  20 N20            3.6593    -5.3880     2.4486 N.am    
  21 C21            3.9127    -5.8110     3.7029 C.2     
  22 C22            4.6687    -4.9245     4.6588 C.3     
  23 O23            3.5322    -6.9052     4.0624 O.2     
  24 C24            4.8199    -5.6372     6.0042 C.3     
  25 C25            2.1423    -9.7871     0.9140 C.2     
  26 O26            2.8611   -10.3304     1.7305 O.2     
  27 N27            1.3773   -10.5300     0.0897 N.am    
  28 C28            1.4117   -11.9919     0.1775 C.3     
  29 C29            0.4587   -12.5878    -0.8605 C.3     
  30 C30            0.4947   -14.1146    -0.7688 C.3     
  31 N31           -0.4179   -14.6852    -1.7627 N.am    
  32 C32           -0.0336   -15.0352    -3.1352 C.3     
  33 C33           -1.3614   -15.1719    -3.9128 C.3     
  34 C34           -2.3544   -15.5256    -2.7815 C.3     
  35 C35           -1.7133   -14.9608    -1.5330 C.2     
  36 O36           -2.2867   -14.7764    -0.4803 O.2     
  37 C37            5.5875    -4.7372     6.9746 C.3     
  38 C38            6.9725    -4.4324     6.4005 C.3     
  39 C39            6.8213    -3.7197     5.0551 C.3     
  40 C40            6.0538    -4.6197     4.0847 C.3     
  41 H41            3.1277     2.3939    -0.8786 H       
  42 H42            3.1967    -0.0614    -0.7294 H       
  43 H43           -1.1237     2.3049    -0.5437 H       
  44 H44            0.9699     3.5745    -0.7902 H       
  45 H45           -1.6235    -0.5498     0.7113 H       
  46 H46           -2.2523     0.2006    -0.7753 H       
  47 H47           -1.3395    -1.3249    -0.8657 H       
  48 H48            1.3938    -1.7447     1.6183 H       
  49 H49           -0.3071    -1.7291     1.0927 H       
  50 H50            2.7211    -1.8314    -1.7943 H       
  51 H51            3.1651    -1.8046    -0.0704 H       
  52 H52            1.7127    -4.0691    -1.5136 H       
  53 H53            3.4136    -4.0848    -0.9880 H       
  54 H54            0.3854    -3.9824     1.8990 H       
  55 H55           -0.0586    -4.0092     0.1751 H       
  56 H56            0.6177    -5.8340    -0.9274 H       
  57 H57            3.5402    -8.0239     2.4058 H       
  58 H58            0.6728    -8.2847    -0.7767 H       
  59 H59            4.0265    -4.5459     2.1373 H       
  60 H60            4.1211    -3.9928     4.8007 H       
  61 H61            3.8332    -5.8544     6.4132 H       
  62 H62            5.3675    -6.5689     5.8623 H       
  63 H63            0.8039   -10.0966    -0.5617 H       
  64 H64            2.4252   -12.3437    -0.0155 H       
  65 H65            1.1029   -12.3033     1.1754 H       
  66 H66           -0.5548   -12.2360    -0.6675 H       
  67 H67            0.7675   -12.2764    -1.8584 H       
  68 H68            1.5081   -14.4664    -0.9618 H       
  69 H69            0.1858   -14.4261     0.2291 H       
  70 H70            0.5779   -14.2441    -3.5691 H       
  71 H71            0.5086   -15.9807    -3.1456 H       
  72 H72           -1.6328   -14.2301    -4.3897 H       
  73 H73           -1.3029   -15.9761    -4.6462 H       
  74 H74           -3.3216   -15.0569    -2.9625 H       
  75 H75           -2.4636   -16.6066    -2.6940 H       
  76 H76            5.0399    -3.8055     7.1165 H       
  77 H77            5.6952    -5.2450     7.9331 H       
  78 H78            7.5193    -3.7912     7.0919 H       
  79 H79            7.5201    -5.3641     6.2586 H       
  80 H80            6.2737    -2.7880     5.1970 H       
  81 H81            7.8081    -3.5025     4.6461 H       
  82 H82            6.6014    -5.5514     3.9428 H       
  83 H83            5.9461    -4.1120     3.1262 H       
@<TRIPOS>BOND
   1    1    2 ar
   2    1    6 ar
   3    1   41 1
   4    2    3 ar
   5    2   42 1
   6    3    4 ar
   7    3    8 1
   8    4    5 ar
   9    4    7 1
  10    5    6 ar
  11    5   43 1
  12    6   44 1
  13    7   45 1
  14    7   46 1
  15    7   47 1
  16    8    9 1
  17    8   10 1
  18    9   13 1
  19    9   48 1
  20    9   49 1
  21   10   11 1
  22   10   50 1
  23   10   51 1
  24   11   12 1
  25   11   52 1
  26   11   53 1
  27   12   13 1
  28   12   14 1
  29   13   54 1
  30   13   55 1
  31   14   15 ar
  32   14   16 ar
  33   15   19 ar
  34   15   56 1
  35   16   17 ar
  36   16   20 1
  37   17   18 ar
  38   17   57 1
  39   18   19 ar
  40   18   25 1
  41   19   58 1
  42   20   21 am
  43   20   59 1
  44   21   22 1
  45   21   23 2
  46   22   24 1
  47   22   40 1
  48   22   60 1
  49   24   37 1
  50   24   61 1
  51   24   62 1
  52   25   26 2
  53   25   27 am
  54   27   28 1
  55   27   63 1
  56   28   29 1
  57   28   64 1
  58   28   65 1
  59   29   30 1
  60   29   66 1
  61   29   67 1
  62   30   31 1
  63   30   68 1
  64   30   69 1
  65   31   32 1
  66   31   35 am
  67   32   33 1
  68   32   70 1
  69   32   71 1
  70   33   34 1
  71   33   72 1
  72   33   73 1
  73   34   35 1
  74   34   74 1
  75   34   75 1
  76   35   36 2
  77   37   38 1
  78   37   76 1
  79   37   77 1
  80   38   39 1
  81   38   78 1
  82   38   79 1
  83   39   40 1
  84   39   80 1
  85   39   81 1
  86   40   82 1
  87   40   83 1

#	End of record

