#	Name: ASD02560106
#	Creating user name:	WinNT
#	Creation time:	15. 06. 2019 20:24

#	Modifying user name:	WinNT
#	Modification time:	15. 06. 2019 20:24

#	Program:	/corina/corina34_cracker 3.40 0067  02.08.2006

@<TRIPOS>MOLECULE
ASD02560106
  54   57    0    0    0
SMALL
NO_CHARGES


@<TRIPOS>ATOM
   1 N1             0.0324     1.3276     0.4432 N.2     
   2 N2            -0.2068     0.1268     0.2820 N.2     
   3 C3             1.4505     1.6238     0.2019 C.3     
   4 N4             2.1257     0.3022     0.2442 N.3     
   5 C5             1.0054    -0.6102    -0.0979 C.3     
   6 S6             1.1322    -2.1503     0.8522 S.3     
   7 C7             1.0501    -1.5771     2.5713 C.3     
   8 C8             1.1442    -2.7601     3.5002 C.2     
   9 O9             1.2556    -3.8795     3.0471 O.2     
  10 N10            1.1044    -2.5740     4.8345 N.am    
  11 Br11           1.6852     2.4563    -1.5636 Br      
  12 C12            3.1388     0.2283    -0.7093 C.ar    
  13 C13            1.1236    -3.6724     5.6922 C.ar    
  14 C14            0.4649    -3.6083     6.9180 C.ar    
  15 C15            0.4819    -4.6915     7.7676 C.ar    
  16 C16            1.1615    -5.8576     7.3977 C.ar    
  17 C17            1.8211    -5.9175     6.1656 C.ar    
  18 C18            1.7957    -4.8322     5.3194 C.ar    
  19 Cl19          -0.3776    -2.1609     7.3751 Cl      
  20 C20            1.1827    -7.0182     8.3033 C.2     
  21 O21            0.6057    -6.9641     9.3807 O.co2   
  22 C22            4.2241     1.1296    -0.6666 C.ar    
  23 C23            3.0932    -0.7296    -1.7000 C.ar    
  24 C24            4.1001    -0.8121    -2.6567 C.ar    
  25 C25            5.1561     0.0476    -2.6420 C.ar    
  26 C26            5.2429     1.0354    -1.6465 C.ar    
  27 C27            6.3212     1.9366    -1.6071 C.ar    
  28 C28            6.3737     2.8816    -0.6290 C.ar    
  29 C29            5.3732     2.9705     0.3367 C.ar    
  30 C30            4.3125     2.1168     0.3272 C.ar    
  31 C31            6.2336    -0.0637    -3.6897 C.3     
  32 C32            7.0060    -1.3819    -3.7715 C.3     
  33 C33            5.9883    -1.0230    -4.8561 C.3     
  34 O34            1.7773    -8.0368     7.9784 O.co2   
  35 H35            1.8407     2.2747     0.9843 H       
  36 H36            1.0014    -0.8220    -1.1671 H       
  37 H37            1.8775    -0.8950     2.7668 H       
  38 H38            0.1054    -1.0593     2.7369 H       
  39 H39            1.0625    -1.6756     5.1978 H       
  40 H40           -0.0282    -4.6413     8.7182 H       
  41 H41            2.3466    -6.8158     5.8769 H       
  42 H42            2.3048    -4.8782     4.3681 H       
  43 H43            2.2667    -1.4241    -1.7335 H       
  44 H44            4.0435    -1.5707    -3.4234 H       
  45 H45            7.1039     1.8791    -2.3490 H       
  46 H46            7.2034     3.5724    -0.6008 H       
  47 H47            5.4385     3.7295     1.1023 H       
  48 H48            3.5443     2.1973     1.0820 H       
  49 H49            6.7818     0.8547    -3.8997 H       
  50 H50            8.0622    -1.3308    -4.0356 H       
  51 H51            6.7348    -2.1686    -3.0674 H       
  52 H52            5.0476    -1.5736    -4.8657 H       
  53 H53            6.3751    -0.7358    -5.8339 H       
  54 Na54          13.0622     8.7295    14.3807 Du      
@<TRIPOS>BOND
   1    1    2 2
   2    1    3 1
   3    2    5 1
   4    3    4 1
   5    3   11 1
   6    3   35 1
   7    4    5 1
   8    4   12 1
   9    5    6 1
  10    5   36 1
  11    6    7 1
  12    7    8 1
  13    7   37 1
  14    7   38 1
  15    8    9 2
  16    8   10 am
  17   10   13 1
  18   10   39 1
  19   12   22 ar
  20   12   23 ar
  21   13   14 ar
  22   13   18 ar
  23   14   15 ar
  24   14   19 1
  25   15   16 ar
  26   15   40 1
  27   16   17 ar
  28   16   20 1
  29   17   18 ar
  30   17   41 1
  31   18   42 1
  32   20   21 ar
  33   20   34 ar
  34   22   26 ar
  35   22   30 ar
  36   23   24 ar
  37   23   43 1
  38   24   25 ar
  39   24   44 1
  40   25   26 ar
  41   25   31 1
  42   26   27 ar
  43   27   28 ar
  44   27   45 1
  45   28   29 ar
  46   28   46 1
  47   29   30 ar
  48   29   47 1
  49   30   48 1
  50   31   32 1
  51   31   33 1
  52   31   49 1
  53   32   33 1
  54   32   50 1
  55   32   51 1
  56   33   52 1
  57   33   53 1

#	End of record

