#	Name: ASD01882182
#	Creating user name:	WinNT
#	Creation time:	15. 06. 2019 19:44

#	Modifying user name:	WinNT
#	Modification time:	15. 06. 2019 19:44

#	Program:	/corina/corina34_cracker 3.40 0067  02.08.2006

@<TRIPOS>MOLECULE
ASD01882182
  12   12    0    0    0
SMALL
NO_CHARGES


@<TRIPOS>ATOM
   1 C1             0.0021    -0.0041     0.0020 C.1     
   2 C2            -0.0173     1.4278     0.0099 C.ar    
   3 C3             1.1796     2.1573     0.0024 C.ar    
   4 C4             1.1050     3.5402     0.0100 C.ar    
   5 C5            -0.1353     4.1515     0.0247 C.ar    
   6 N6            -1.2464     3.4399     0.0319 N.ar    
   7 C7            -1.2296     2.1221     0.0193 C.ar    
   8 N8             0.0175    -1.1399    -0.0042 N.1     
   9 Br9            2.8526     1.2761    -0.0171 Br      
  10 Br10          -2.8596     1.1634     0.0224 Br      
  11 H11            2.0063     4.1352     0.0050 H       
  12 H12           -0.1955     5.2298     0.0307 H       
@<TRIPOS>BOND
   1    1    2 1
   2    1    8 3
   3    2    3 ar
   4    2    7 ar
   5    3    4 ar
   6    3    9 1
   7    4    5 ar
   8    4   11 1
   9    5    6 ar
  10    5   12 1
  11    6    7 ar
  12    7   10 1

#	End of record

