#	Name: ASD01840548
#	Creating user name:	WinNT
#	Creation time:	15. 06. 2019 19:37

#	Modifying user name:	WinNT
#	Modification time:	15. 06. 2019 19:37

#	Program:	/corina/corina34_cracker 3.40 0067  02.08.2006

@<TRIPOS>MOLECULE
ASD01840548
  50   53    0    0    0
SMALL
NO_CHARGES


@<TRIPOS>ATOM
   1 C1             0.8220     1.5527    -2.7716 C.3     
   2 N2             0.7259     0.1445    -2.3792 N.pl3   
   3 C3             1.3219    -0.2910    -1.2013 C.ar    
   4 N4             1.9707     0.5721    -0.4348 N.ar    
   5 C5             2.5505     0.2002     0.6910 C.ar    
   6 C6             3.2761     1.2226     1.5272 C.3     
   7 C7             2.5002    -1.1137     1.1127 C.ar    
   8 C8             3.1651    -1.5277     2.4001 C.3     
   9 C9             1.8291    -2.0483     0.3362 C.ar    
  10 C10            1.5945    -3.5250     0.5066 C.3     
  11 N11            0.8106    -3.9866    -0.6446 N.am    
  12 C12            0.5748    -2.8147    -1.4953 C.3     
  13 C13            1.2275    -1.6300    -0.8332 C.ar    
  14 C14            0.3883    -5.2453    -0.8762 C.2     
  15 O15            0.6529    -6.1283    -0.0881 O.2     
  16 C16           -0.4126    -5.5556    -2.1145 C.3     
  17 C17           -0.7629    -7.0448    -2.1355 C.3     
  18 C18           -2.0749    -7.3829    -1.4048 C.3     
  19 N19           -2.3551    -8.2935    -2.5369 N.3     
  20 C20           -1.4786    -7.4948    -3.4219 C.3     
  21 C21           -3.6906    -8.1988    -2.9369 C.ar    
  22 C22           -4.3441    -6.9692    -2.9609 C.ar    
  23 N23           -5.6085    -6.9221    -3.3463 N.ar    
  24 C24           -6.2481    -8.0175    -3.7040 C.ar    
  25 N25           -5.6655    -9.1996    -3.6946 N.ar    
  26 C26           -4.4015    -9.3309    -3.3278 C.ar    
  27 H27            1.8705     1.8260    -2.8903 H       
  28 H28            0.2981     1.7033    -3.7156 H       
  29 H29            0.3689     2.1763    -2.0011 H       
  30 H30            0.2464    -0.4840    -2.9413 H       
  31 H31            2.5824     1.6665     2.2413 H       
  32 H32            4.0916     0.7394     2.0652 H       
  33 H33            3.6791     2.0016     0.8799 H       
  34 H34            2.4567    -1.4298     3.2227 H       
  35 H35            3.4917    -2.5647     2.3232 H       
  36 H36            4.0279    -0.8879     2.5855 H       
  37 H37            2.5494    -4.0497     0.5379 H       
  38 H38            1.0410    -3.7074     1.4277 H       
  39 H39            1.0119    -2.9790    -2.4802 H       
  40 H40           -0.4963    -2.6367    -1.5904 H       
  41 H41           -1.3297    -4.9666    -2.1111 H       
  42 H42            0.1749    -5.3081    -2.9987 H       
  43 H43            0.0751    -7.6823    -1.8537 H       
  44 H44           -1.9286    -7.8961    -0.4543 H       
  45 H45           -2.7672    -6.5439    -1.3343 H       
  46 H46           -1.9965    -6.6886    -3.9414 H       
  47 H47           -0.8558    -8.0974    -4.0831 H       
  48 H48           -3.8263    -6.0676    -2.6688 H       
  49 H49           -7.2802    -7.9443    -4.0135 H       
  50 H50           -3.9290   -10.3020    -3.3273 H       
@<TRIPOS>BOND
   1    1    2 1
   2    1   27 1
   3    1   28 1
   4    1   29 1
   5    2    3 1
   6    2   30 1
   7    3   13 ar
   8    3    4 ar
   9    4    5 ar
  10    5    6 1
  11    5    7 ar
  12    6   31 1
  13    6   32 1
  14    6   33 1
  15    7    8 1
  16    7    9 ar
  17    8   34 1
  18    8   35 1
  19    8   36 1
  20    9   13 ar
  21    9   10 1
  22   10   11 1
  23   10   37 1
  24   10   38 1
  25   11   12 1
  26   11   14 am
  27   12   13 1
  28   12   39 1
  29   12   40 1
  30   14   15 2
  31   14   16 1
  32   16   17 1
  33   16   41 1
  34   16   42 1
  35   17   20 1
  36   17   18 1
  37   17   43 1
  38   18   19 1
  39   18   44 1
  40   18   45 1
  41   19   20 1
  42   19   21 1
  43   20   46 1
  44   20   47 1
  45   21   26 ar
  46   21   22 ar
  47   22   23 ar
  48   22   48 1
  49   23   24 ar
  50   24   25 ar
  51   24   49 1
  52   25   26 ar
  53   26   50 1

#	End of record

