#	Name: ASD01150928
#	Creating user name:	WinNT
#	Creation time:	15. 06. 2019 19:05

#	Modifying user name:	WinNT
#	Modification time:	15. 06. 2019 19:05

#	Program:	/corina/corina34_cracker 3.40 0067  02.08.2006

@<TRIPOS>MOLECULE
ASD01150928
  59   61    0    0    0
SMALL
NO_CHARGES


@<TRIPOS>ATOM
   1 C1            -0.0175     1.5180     0.0177 C.3     
   2 C2            -0.0777     0.0232    -0.1641 C.2     
   3 N3            -1.2619    -0.5818    -0.3831 N.am    
   4 O4             0.9395    -0.6352    -0.1134 O.2     
   5 C5            -1.3175    -1.9615    -0.5509 C.2     
   6 N6            -0.2795    -2.8007    -0.5182 N.2     
   7 C7            -0.6923    -4.0364    -0.7137 C.2     
   8 N8            -2.0397    -4.0390    -0.8831 N.pl3   
   9 C9            -2.4634    -2.7133    -0.7765 C.2     
  10 C10           -3.7846    -2.2339    -0.8845 C.2     
  11 O11           -4.7987    -3.0953    -1.1157 O.3     
  12 O12           -4.0116    -1.0430    -0.7694 O.2     
  13 C13           -6.1119    -2.5403    -1.2136 C.3     
  14 C14           -7.1208    -3.6603    -1.4752 C.3     
  15 S15            0.3420    -5.4624    -0.7506 S.3     
  16 C16            1.9527    -4.6900    -0.4587 C.3     
  17 C17           -2.8867    -5.2094    -1.1259 C.3     
  18 C18           -3.3534    -5.7737     0.1912 C.ar    
  19 C19           -4.5329    -5.3256     0.7561 C.ar    
  20 C20           -4.9610    -5.8432     1.9643 C.ar    
  21 C21           -4.2098    -6.8092     2.6074 C.ar    
  22 C22           -3.0308    -7.2579     2.0421 C.ar    
  23 C23           -2.6050    -6.7434     0.8318 C.ar    
  24 O24            1.3374     1.9174     0.2341 O.3     
  25 C25           -0.5579     2.2066    -1.2371 C.3     
  26 C26           -0.8665     1.9195     1.2255 C.3     
  27 C27            1.9615     1.4136     1.3314 C.ar    
  28 C28            3.2346     1.8500     1.6680 C.ar    
  29 C29            3.8670     1.3372     2.7840 C.ar    
  30 C30            3.2315     0.3889     3.5659 C.ar    
  31 C31            1.9617    -0.0476     3.2318 C.ar    
  32 C32            1.3239     0.4667     2.1196 C.ar    
  33 Cl33           4.0286    -0.2545     4.9675 Cl      
  34 H34           -2.0755    -0.0552    -0.4236 H       
  35 H35           -6.3633    -2.0353    -0.2809 H       
  36 H36           -6.1432    -1.8239    -2.0345 H       
  37 H37           -8.1224    -3.2369    -1.5499 H       
  38 H38           -6.8693    -4.1653    -2.4079 H       
  39 H39           -7.0894    -4.3767    -0.6543 H       
  40 H40            2.7274    -5.4568    -0.4512 H       
  41 H41            2.1602    -3.9716    -1.2518 H       
  42 H42            1.9405    -4.1764     0.5027 H       
  43 H43           -3.7508    -4.9152    -1.7218 H       
  44 H44           -2.3154    -5.9662    -1.6634 H       
  45 H45           -5.1197    -4.5709     0.2536 H       
  46 H46           -5.8821    -5.4926     2.4059 H       
  47 H47           -4.5439    -7.2130     3.5517 H       
  48 H48           -2.4438    -8.0123     2.5447 H       
  49 H49           -1.6839    -7.0940     0.3901 H       
  50 H50           -1.6066     1.9423    -1.3735 H       
  51 H51           -0.4670     3.2871    -1.1264 H       
  52 H52            0.0148     1.8809    -2.1055 H       
  53 H53           -0.4066     1.5363     2.1364 H       
  54 H54           -0.9300     3.0062     1.2800 H       
  55 H55           -1.8679     1.5018     1.1207 H       
  56 H56            3.7311     2.5899     1.0577 H       
  57 H57            4.8583     1.6764     3.0461 H       
  58 H58            1.4673    -0.7879     3.8433 H       
  59 H59            0.3328     0.1257     1.8591 H       
@<TRIPOS>BOND
   1    1    2 1
   2    1   24 1
   3    1   25 1
   4    1   26 1
   5    2    3 am
   6    2    4 2
   7    3    5 1
   8    3   34 1
   9    5    6 1
  10    5    9 2
  11    6    7 2
  12    7    8 1
  13    7   15 1
  14    8    9 1
  15    8   17 1
  16    9   10 1
  17   10   11 1
  18   10   12 2
  19   11   13 1
  20   13   14 1
  21   13   35 1
  22   13   36 1
  23   14   37 1
  24   14   38 1
  25   14   39 1
  26   15   16 1
  27   16   40 1
  28   16   41 1
  29   16   42 1
  30   17   18 1
  31   17   43 1
  32   17   44 1
  33   18   19 ar
  34   18   23 ar
  35   19   20 ar
  36   19   45 1
  37   20   21 ar
  38   20   46 1
  39   21   22 ar
  40   21   47 1
  41   22   23 ar
  42   22   48 1
  43   23   49 1
  44   24   27 1
  45   25   50 1
  46   25   51 1
  47   25   52 1
  48   26   53 1
  49   26   54 1
  50   26   55 1
  51   27   28 ar
  52   27   32 ar
  53   28   29 ar
  54   28   56 1
  55   29   30 ar
  56   29   57 1
  57   30   31 ar
  58   30   33 1
  59   31   32 ar
  60   31   58 1
  61   32   59 1

#	End of record

