#	Name: ASD00190049
#	Creating user name:	WinNT
#	Creation time:	15. 06. 2019 18:33

#	Modifying user name:	WinNT
#	Modification time:	15. 06. 2019 18:33

#	Program:	/corina/corina34_cracker 3.40 0067  02.08.2006

@<TRIPOS>MOLECULE
ASD00190049
  59   64    0    0    0
SMALL
NO_CHARGES


@<TRIPOS>ATOM
   1 C1             0.7167     0.1726     0.3647 C.ar    
   2 C2             0.9132    -1.2019     0.2936 C.ar    
   3 C3             2.1661    -1.7270     0.1801 C.ar    
   4 C4             3.2791    -0.8736     0.1332 C.ar    
   5 C5             3.0730     0.5243     0.2056 C.ar    
   6 C6             1.7776     1.0313     0.3219 C.ar    
   7 N7             4.5214    -1.3672     0.0223 N.ar    
   8 C8             5.5889    -0.6003    -0.0243 C.ar    
   9 C9             5.4995     0.7995     0.0400 C.ar    
  10 C10            4.2428     1.4027     0.1556 C.ar    
  11 N11            6.4118     1.8314     0.0165 N.pl3   
  12 C12            5.7155     2.9857     0.1151 C.2     
  13 N13            4.4386     2.7287     0.1966 N.2     
  14 N14            6.8385    -1.1910    -0.1398 N.pl3   
  15 C15            6.9619    -2.5825    -0.0827 C.ar    
  16 C16            7.9377    -3.2257    -0.8331 C.ar    
  17 C17            8.0578    -4.6006    -0.7753 C.ar    
  18 C18            7.2070    -5.3377     0.0289 C.ar    
  19 C19            6.2327    -4.6993     0.7786 C.ar    
  20 C20            6.1124    -3.3236     0.7290 C.ar    
  21 Cl21           5.1665    -5.6276     1.7862 Cl      
  22 Cl22           7.3603    -7.0655     0.0981 Cl      
  23 C23            6.3233     4.3646     0.1289 C.3     
  24 C24            6.7471     4.7207     1.5557 C.3     
  25 C25            7.3328     6.1361     1.5720 C.3     
  26 N26            8.4177     6.2104     0.5840 N.am    
  27 C27            8.1414     5.8035    -0.8005 C.3     
  28 C28            7.5467     4.3918    -0.7902 C.3     
  29 C29            9.6429     6.6440     0.9407 C.2     
  30 O30           10.5573     6.6076     0.1407 O.2     
  31 C31            9.8747     7.1639     2.3052 C.ar    
  32 C32           11.1105     6.9760     2.9263 C.ar    
  33 C33           11.3204     7.4641     4.1995 C.ar    
  34 C34           10.3091     8.1381     4.8607 C.ar    
  35 C35            9.0818     8.3278     4.2507 C.ar    
  36 C36            8.8607     7.8498     2.9756 C.ar    
  37 H37           -0.2857     0.5655     0.4502 H       
  38 H38            0.0603    -1.8636     0.3291 H       
  39 H39            2.3018    -2.7971     0.1267 H       
  40 H40            1.6152     2.0976     0.3778 H       
  41 H41            7.3752     1.7456    -0.0569 H       
  42 H42            7.6268    -0.6388    -0.2601 H       
  43 H43            8.6019    -2.6513    -1.4618 H       
  44 H44            8.8166    -5.1008    -1.3588 H       
  45 H45            5.3528    -2.8259     1.3135 H       
  46 H46            5.5887     5.0889    -0.2231 H       
  47 H47            5.8796     4.6783     2.2142 H       
  48 H48            7.5002     4.0114     1.8993 H       
  49 H49            6.5555     6.8561     1.3160 H       
  50 H50            7.7263     6.3574     2.5641 H       
  51 H51            7.4300     6.4964    -1.2500 H       
  52 H52            9.0684     5.8053    -1.3738 H       
  53 H53            8.2922     3.6856    -0.4246 H       
  54 H54            7.2482     4.1154    -1.8014 H       
  55 H55           11.9005     6.4494     2.4115 H       
  56 H56           12.2762     7.3194     4.6812 H       
  57 H57           10.4784     8.5176     5.8576 H       
  58 H58            8.2966     8.8548     4.7723 H       
  59 H59            7.9024     7.9987     2.5004 H       
@<TRIPOS>BOND
   1    1    2 ar
   2    1    6 ar
   3    1   37 1
   4    2    3 ar
   5    2   38 1
   6    3    4 ar
   7    3   39 1
   8    4    5 ar
   9    4    7 ar
  10    5    6 ar
  11    5   10 ar
  12    6   40 1
  13    7    8 ar
  14    8    9 ar
  15    8   14 1
  16    9   10 ar
  17    9   11 1
  18   10   13 1
  19   11   12 1
  20   11   41 1
  21   12   13 2
  22   12   23 1
  23   14   15 1
  24   14   42 1
  25   15   16 ar
  26   15   20 ar
  27   16   17 ar
  28   16   43 1
  29   17   18 ar
  30   17   44 1
  31   18   19 ar
  32   18   22 1
  33   19   20 ar
  34   19   21 1
  35   20   45 1
  36   23   24 1
  37   23   28 1
  38   23   46 1
  39   24   25 1
  40   24   47 1
  41   24   48 1
  42   25   26 1
  43   25   49 1
  44   25   50 1
  45   26   27 1
  46   26   29 am
  47   27   28 1
  48   27   51 1
  49   27   52 1
  50   28   53 1
  51   28   54 1
  52   29   30 2
  53   29   31 1
  54   31   32 ar
  55   31   36 ar
  56   32   33 ar
  57   32   55 1
  58   33   34 ar
  59   33   56 1
  60   34   35 ar
  61   34   57 1
  62   35   36 ar
  63   35   58 1
  64   36   59 1

#	End of record

