#	Name: ASD08150514
#	Creating user name:	WinNT
#	Creation time:	15. 06. 2019 21:16

#	Modifying user name:	WinNT
#	Modification time:	15. 06. 2019 21:16

#	Program:	/corina/corina34_cracker 3.40 0067  02.08.2006

@<TRIPOS>MOLECULE
ASD08150514
  44   48    0    0    0
SMALL
NO_CHARGES


@<TRIPOS>ATOM
   1 N1            -0.0622     1.0532    -1.3427 N.am    
   2 C2            -0.0031    -0.2907    -1.2692 C.2     
   3 C3             1.2355    -0.9632    -1.2968 C.2     
   4 C4             2.3922    -0.2603    -1.3990 C.2     
   5 C5             2.3340     1.1536    -1.4769 C.ar    
   6 C6             3.5042     1.9298    -1.5836 C.ar    
   7 N7             3.4477     3.2338    -1.6544 N.ar    
   8 C8             2.2850     3.9037    -1.6306 C.ar    
   9 C9             1.0582     3.2040    -1.5258 C.ar    
  10 C10            1.0849     1.7923    -1.4463 C.ar    
  11 C11           -0.1280     5.2919    -1.5791 C.ar    
  12 C12            1.0854     5.9775    -1.6830 C.ar    
  13 C13            2.2688     5.3054    -1.7087 C.ar    
  14 O14           -1.0348    -0.9340    -1.1772 O.2     
  15 C15           -1.3054     1.6974    -1.3187 C.ar    
  16 C16           -1.9796     1.9516    -2.5055 C.ar    
  17 C17           -3.2064     2.5877    -2.4794 C.ar    
  18 C18           -3.7628     2.9716    -1.2697 C.ar    
  19 C19           -3.0912     2.7185    -0.0854 C.ar    
  20 C20           -1.8681     2.0778    -0.1071 C.ar    
  21 C21           -0.1477     3.9136    -1.5009 C.ar    
  22 N22           -1.3293     6.0061    -1.5553 N.pl3   
  23 F23           -4.9616     3.5940    -1.2457 F       
  24 Cl24          -4.0504     2.9061    -3.9626 Cl      
  25 C25           -1.4348     7.1641    -0.7923 C.ar    
  26 N26           -2.5194     7.9175    -0.8898 N.ar    
  27 C27           -2.6593     9.0233    -0.1835 C.ar    
  28 C28           -1.6721     9.4363     0.6884 C.ar    
  29 C29           -0.5185     8.6742     0.8201 C.ar    
  30 C30           -0.4024     7.5175     0.0709 C.ar    
  31 H31            1.2642    -2.0411    -1.2362 H       
  32 H32            3.3435    -0.7712    -1.4201 H       
  33 H33            4.4658     1.4387    -1.6068 H       
  34 H34            1.0841     7.0558    -1.7441 H       
  35 H35            3.1971     5.8515    -1.7890 H       
  36 H36           -1.5455     1.6530    -3.4483 H       
  37 H37           -3.5263     3.0189     0.8564 H       
  38 H38           -1.3452     1.8804     0.8170 H       
  39 H39           -1.0871     3.3868    -1.4215 H       
  40 H40           -2.0894     5.6940    -2.0708 H       
  41 H41           -3.5579     9.6132    -0.2893 H       
  42 H42           -1.7953    10.3430     1.2620 H       
  43 H43            0.2684     8.9759     1.4955 H       
  44 H44            0.4811     6.9013     0.1488 H       
@<TRIPOS>BOND
   1    1    2 am
   2    1   10 1
   3    1   15 1
   4    2    3 1
   5    2   14 2
   6    3    4 2
   7    3   31 1
   8    4    5 1
   9    4   32 1
  10    5    6 ar
  11    5   10 ar
  12    6    7 ar
  13    6   33 1
  14    7    8 ar
  15    8    9 ar
  16    8   13 ar
  17    9   10 ar
  18    9   21 ar
  19   11   12 ar
  20   11   22 1
  21   11   21 ar
  22   12   13 ar
  23   12   34 1
  24   13   35 1
  25   15   16 ar
  26   15   20 ar
  27   16   17 ar
  28   16   36 1
  29   17   18 ar
  30   17   24 1
  31   18   19 ar
  32   18   23 1
  33   19   20 ar
  34   19   37 1
  35   20   38 1
  36   21   39 1
  37   22   25 1
  38   22   40 1
  39   25   26 ar
  40   25   30 ar
  41   26   27 ar
  42   27   28 ar
  43   27   41 1
  44   28   29 ar
  45   28   42 1
  46   29   30 ar
  47   29   43 1
  48   30   44 1

#	End of record

