#	Name: ASD01880853
#	Creating user name:	WinNT
#	Creation time:	15. 06. 2019 19:41

#	Modifying user name:	WinNT
#	Modification time:	15. 06. 2019 19:41

#	Program:	/corina/corina34_cracker 3.40 0067  02.08.2006

@<TRIPOS>MOLECULE
ASD01880853
  70   73    0    0    0
SMALL
NO_CHARGES


@<TRIPOS>ATOM
   1 N1            -0.0004     1.3082    -0.2105 N.ar    
   2 C2             0.0283    -0.0087    -0.2353 C.ar    
   3 N3             1.1426    -0.6836    -0.0356 N.ar    
   4 C4             2.2870    -0.0578     0.1999 C.ar    
   5 C5             2.3053     1.3228     0.2353 C.ar    
   6 C6             1.1074     2.0071     0.0196 C.ar    
   7 C7             3.5858     2.0718     0.5000 C.3     
   8 O8             4.3100     2.2242    -0.7225 O.3     
   9 C9             5.4954     2.8818    -0.6586 C.ar    
  10 C10            6.2516     3.0652    -1.8122 C.ar    
  11 C11            7.4503     3.7310    -1.7463 C.ar    
  12 C12            7.9180     4.2274    -0.5249 C.ar    
  13 C13            7.1544     4.0407     0.6306 C.ar    
  14 C14            5.9502     3.3764     0.5579 C.ar    
  15 C15            8.4891     4.0923    -2.7785 C.3     
  16 N16            9.5478     4.8109    -2.0603 N.am    
  17 C17            9.2142     4.8865    -0.7605 C.2     
  18 O18            9.8866     5.4231     0.0988 O.2     
  19 N19            1.0736     3.3918     0.0446 N.3     
  20 C20           -0.1736     3.8773     0.6515 C.3     
  21 C21           -0.1374     5.4052     0.7326 C.3     
  22 N22            0.0396     5.9607    -0.6164 N.3     
  23 C23            1.2868     5.4752    -1.2233 C.3     
  24 C24            1.2506     3.9473    -1.3044 C.3     
  25 C25            0.0038     7.4291    -0.5900 C.3     
  26 C26            7.2390     6.0373     2.0989 C.3     
  27 C27            7.6458     4.5695     1.9535 C.3     
  28 C28           10.5132     6.7937    -3.1176 C.3     
  29 C29           10.7678     5.3558    -2.6610 C.3     
  30 C30           -1.4077    -0.9876    -2.0042 C.3     
  31 C31           -1.2486    -0.7645    -0.4989 C.3     
  32 C32            4.2552    -1.0769    -0.9122 C.3     
  33 C33            3.5530    -0.8432     0.4269 C.3     
  34 H34            3.3537     3.0549     0.9097 H       
  35 H35            4.1919     1.5144     1.2142 H       
  36 H36            5.8961     2.6840    -2.7581 H       
  37 H37            5.3604     3.2328     1.4512 H       
  38 H38            8.8931     3.1890    -3.2357 H       
  39 H39            8.0511     4.7355    -3.5418 H       
  40 H40           -1.0208     3.5656     0.0405 H       
  41 H41           -0.2758     3.4623     1.6542 H       
  42 H42           -1.0735     5.7693     1.1558 H       
  43 H43            0.6936     5.7162     1.3658 H       
  44 H44            1.3890     5.8903    -2.2260 H       
  45 H45            2.1340     5.7870    -0.6123 H       
  46 H46            2.1868     3.5833    -1.7277 H       
  47 H47            0.4196     3.6364    -1.9376 H       
  48 H48            0.8049     7.8006     0.0489 H       
  49 H49            0.1371     7.8140    -1.6010 H       
  50 H50           -0.9574     7.7620    -0.1982 H       
  51 H51            7.5945     6.4197     3.0557 H       
  52 H52            7.6798     6.6184     1.2889 H       
  53 H53            6.1530     6.1193     2.0557 H       
  54 H54            7.2051     3.9883     2.7634 H       
  55 H55            8.7319     4.4875     1.9967 H       
  56 H56           11.4209     7.1991    -3.5645 H       
  57 H57            9.7096     6.8042    -3.8540 H       
  58 H58           10.2276     7.4022    -2.2595 H       
  59 H59           11.5714     5.3454    -1.9245 H       
  60 H60           11.0534     4.7473    -3.5190 H       
  61 H61           -2.3312    -1.5342    -2.1948 H       
  62 H62           -1.4442    -0.0241    -2.5124 H       
  63 H63           -0.5609    -1.5635    -2.3776 H       
  64 H64           -1.2120    -1.7280     0.0094 H       
  65 H65           -2.0953    -0.1886    -0.1255 H       
  66 H66            3.5953    -1.6353    -1.5760 H       
  67 H67            4.4999    -0.1168    -1.3665 H       
  68 H68            5.1709    -1.6450    -0.7480 H       
  69 H69            4.2130    -0.2848     1.0907 H       
  70 H70            3.3084    -1.8033     0.8813 H       
@<TRIPOS>BOND
   1    1    2 ar
   2    1    6 ar
   3    2    3 ar
   4    2   31 1
   5    3    4 ar
   6    4    5 ar
   7    4   33 1
   8    5    6 ar
   9    5    7 1
  10    6   19 1
  11    7    8 1
  12    7   34 1
  13    7   35 1
  14    8    9 1
  15    9   10 ar
  16    9   14 ar
  17   10   11 ar
  18   10   36 1
  19   11   12 ar
  20   11   15 1
  21   12   13 ar
  22   12   17 1
  23   13   14 ar
  24   13   27 1
  25   14   37 1
  26   15   16 1
  27   15   38 1
  28   15   39 1
  29   16   17 am
  30   16   29 1
  31   17   18 2
  32   19   20 1
  33   19   24 1
  34   20   21 1
  35   20   40 1
  36   20   41 1
  37   21   22 1
  38   21   42 1
  39   21   43 1
  40   22   23 1
  41   22   25 1
  42   23   24 1
  43   23   44 1
  44   23   45 1
  45   24   46 1
  46   24   47 1
  47   25   48 1
  48   25   49 1
  49   25   50 1
  50   26   27 1
  51   26   51 1
  52   26   52 1
  53   26   53 1
  54   27   54 1
  55   27   55 1
  56   28   29 1
  57   28   56 1
  58   28   57 1
  59   28   58 1
  60   29   59 1
  61   29   60 1
  62   30   31 1
  63   30   61 1
  64   30   62 1
  65   30   63 1
  66   31   64 1
  67   31   65 1
  68   32   33 1
  69   32   66 1
  70   32   67 1
  71   32   68 1
  72   33   69 1
  73   33   70 1

#	End of record

