#	Name: ASD02562062
#	Creating user name:	WinNT
#	Creation time:	15. 06. 2019 20:25

#	Modifying user name:	WinNT
#	Modification time:	15. 06. 2019 20:25

#	Program:	/corina/corina34_cracker 3.40 0067  02.08.2006

@<TRIPOS>MOLECULE
ASD02562062
  43   46    0    0    0
SMALL
NO_CHARGES


@<TRIPOS>ATOM
   1 C1             0.1061     1.0401     1.1254 C.2     
   2 C2             0.2334    -0.3604     1.1277 C.2     
   3 C3             1.4085    -0.9381     0.8072 C.2     
   4 N4             2.4938    -0.1724     0.4752 N.pl3   
   5 C5             2.3992     1.2005     0.4639 C.2     
   6 C6             1.1738     1.8152     0.7978 C.2     
   7 C7             3.7736    -0.4950     0.1176 C.2     
   8 C8             4.4371     0.6930    -0.1058 C.2     
   9 N9             3.5729     1.7006     0.1136 N.2     
  10 N10            4.3063    -1.7802     0.0014 N.3     
  11 C11            5.8540     0.8350    -0.5162 C.ar    
  12 C12            3.2573    -2.7993     0.1391 C.3     
  13 C13            3.7050    -4.0887    -0.5523 C.3     
  14 C14            2.6124    -5.1501    -0.4089 C.3     
  15 C15            2.3624    -5.4274     1.0748 C.3     
  16 C16            1.9147    -4.1380     1.7663 C.3     
  17 C17            3.0073    -3.0766     1.6229 C.3     
  18 C18            6.1972     1.6848    -1.5692 C.ar    
  19 C19            7.5208     1.8129    -1.9464 C.ar    
  20 C20            8.5042     1.1011    -1.2834 C.ar    
  21 C21            8.1712     0.2573    -0.2391 C.ar    
  22 C22            6.8523     0.1240     0.1523 C.ar    
  23 F23            5.2379     2.3801    -2.2184 F       
  24 F24            6.5288    -0.7002     1.1727 F       
  25 H25           -0.8383     1.4985     1.3789 H       
  26 H26           -0.6147    -0.9764     1.3880 H       
  27 H27            1.4946    -2.0147     0.8127 H       
  28 H28            1.0849     2.8915     0.7927 H       
  29 H29            4.8033    -1.8882    -0.8700 H       
  30 H30            2.3382    -2.4394    -0.3232 H       
  31 H31            3.8831    -3.8911    -1.6093 H       
  32 H32            4.6241    -4.4486    -0.0900 H       
  33 H33            1.6933    -4.7902    -0.8712 H       
  34 H34            2.9313    -6.0687    -0.9015 H       
  35 H35            1.5840    -6.1836     1.1770 H       
  36 H36            3.2815    -5.7873     1.5371 H       
  37 H37            0.9955    -3.7781     1.3040 H       
  38 H38            1.7365    -4.3356     2.8233 H       
  39 H39            3.9264    -3.4365     2.0852 H       
  40 H40            2.6883    -2.1580     2.1154 H       
  41 H41            7.7877     2.4700    -2.7609 H       
  42 H42            9.5367     1.2043    -1.5827 H       
  43 H43            8.9440    -0.2959     0.2740 H       
@<TRIPOS>BOND
   1    1    2 1
   2    1    6 2
   3    1   25 1
   4    2    3 2
   5    2   26 1
   6    3    4 1
   7    3   27 1
   8    4    5 1
   9    4    7 1
  10    5    6 1
  11    5    9 2
  12    6   28 1
  13    7    8 2
  14    7   10 1
  15    8    9 1
  16    8   11 1
  17   10   12 1
  18   10   29 1
  19   11   18 ar
  20   11   22 ar
  21   12   13 1
  22   12   17 1
  23   12   30 1
  24   13   14 1
  25   13   31 1
  26   13   32 1
  27   14   15 1
  28   14   33 1
  29   14   34 1
  30   15   16 1
  31   15   35 1
  32   15   36 1
  33   16   17 1
  34   16   37 1
  35   16   38 1
  36   17   39 1
  37   17   40 1
  38   18   19 ar
  39   18   23 1
  40   19   20 ar
  41   19   41 1
  42   20   21 ar
  43   20   42 1
  44   21   22 ar
  45   21   43 1
  46   22   24 1

#	End of record

