#	Name: ASD01913695
#	Creating user name:	WinNT
#	Creation time:	15. 06. 2019 20:02

#	Modifying user name:	WinNT
#	Modification time:	15. 06. 2019 20:02

#	Program:	/corina/corina34_cracker 3.40 0067  02.08.2006

@<TRIPOS>MOLECULE
ASD01913695
  46   48    0    0    0
SMALL
NO_CHARGES


@<TRIPOS>ATOM
   1 C1            -0.0184     1.5028     0.0103 C.ar    
   2 C2             0.0021    -0.0041     0.0020 C.3     
   3 O3             0.0214    -0.4876     1.3466 O.3     
   4 C4             0.0413    -1.8317     1.5167 C.ar    
   5 N5             0.0420    -2.6238     0.4557 N.ar    
   6 C6             0.0610    -3.9354     0.5691 C.ar    
   7 C7             0.0807    -4.5400     1.8264 C.ar    
   8 C8             0.0805    -3.7291     2.9711 C.ar    
   9 C9             0.0664    -2.3598     2.8041 C.ar    
  10 C10            0.1009    -6.0108     1.9502 C.2     
  11 N11            0.1004    -6.7803     0.8437 N.am    
  12 O12            0.1179    -6.5281     3.0503 O.2     
  13 C13            0.1205    -8.2400     0.9665 C.3     
  14 C14           -0.4929    -8.8658    -0.2876 C.3     
  15 C15           -0.4720   -10.3903    -0.1593 C.3     
  16 C16            0.9729   -10.8693    -0.0048 C.3     
  17 C17            1.5863   -10.2434     1.2493 C.3     
  18 C18            1.5653    -8.7189     1.1210 C.3     
  19 C19            1.1675     2.2070     0.0028 C.ar    
  20 C20            1.1467     3.6034     0.0100 C.ar    
  21 C21           -0.0762     4.2768     0.0248 C.ar    
  22 C22           -1.2549     3.5598     0.0322 C.ar    
  23 C23           -1.2270     2.1767     0.0197 C.ar    
  24 C24            2.3740     4.3411     0.0027 C.1     
  25 N25            3.3477     4.9263    -0.0031 N.1     
  26 H26           -0.8878    -0.3767    -0.5053 H       
  27 H27            0.8920    -0.3525    -0.5222 H       
  28 H28            0.0609    -4.5492    -0.3196 H       
  29 H29            0.0954    -4.1660     3.9587 H       
  30 H30            0.0662    -1.7049     3.6629 H       
  31 H31            0.0868    -6.3676    -0.0341 H       
  32 H32           -0.4569    -8.5389     1.8414 H       
  33 H33           -1.5223    -8.5246    -0.3977 H       
  34 H34            0.0845    -8.5669    -1.1625 H       
  35 H35           -1.0494   -10.6892     0.7155 H       
  36 H36           -0.9090   -10.8361    -1.0528 H       
  37 H37            0.9878   -11.9553     0.0866 H       
  38 H38            1.5503   -10.5703    -0.8797 H       
  39 H39            1.0089   -10.5424     2.1242 H       
  40 H40            2.6157   -10.5846     1.3594 H       
  41 H41            2.1427    -8.4200     0.2462 H       
  42 H42            2.0024    -8.2731     2.0145 H       
  43 H43            2.1100     1.6798    -0.0084 H       
  44 H44           -0.0994     5.3566     0.0308 H       
  45 H45           -2.2016     4.0795     0.0441 H       
  46 H46           -2.1526     1.6204     0.0256 H       
@<TRIPOS>BOND
   1    1    2 1
   2    1   19 ar
   3    1   23 ar
   4    2    3 1
   5    2   26 1
   6    2   27 1
   7    3    4 1
   8    4    5 ar
   9    4    9 ar
  10    5    6 ar
  11    6    7 ar
  12    6   28 1
  13    7    8 ar
  14    7   10 1
  15    8    9 ar
  16    8   29 1
  17    9   30 1
  18   10   11 am
  19   10   12 2
  20   11   13 1
  21   11   31 1
  22   13   14 1
  23   13   18 1
  24   13   32 1
  25   14   15 1
  26   14   33 1
  27   14   34 1
  28   15   16 1
  29   15   35 1
  30   15   36 1
  31   16   17 1
  32   16   37 1
  33   16   38 1
  34   17   18 1
  35   17   39 1
  36   17   40 1
  37   18   41 1
  38   18   42 1
  39   19   20 ar
  40   19   43 1
  41   20   21 ar
  42   20   24 1
  43   21   22 ar
  44   21   44 1
  45   22   23 ar
  46   22   45 1
  47   23   46 1
  48   24   25 3

#	End of record

