#	Name: ASD03082423
#	Creating user name:	WinNT
#	Creation time:	15. 06. 2019 20:27

#	Modifying user name:	WinNT
#	Modification time:	15. 06. 2019 20:27

#	Program:	/corina/corina34_cracker 3.40 0067  02.08.2006

@<TRIPOS>MOLECULE
ASD03082423
  49   52    0    0    0
SMALL
NO_CHARGES


@<TRIPOS>ATOM
   1 C1             1.5230     3.6656    -0.7072 C.ar    
   2 C2             0.5848     4.3555    -1.4639 C.ar    
   3 C3             0.6250     5.7353    -1.5264 C.ar    
   4 C4             1.6006     6.4345    -0.8344 C.ar    
   5 C5             2.5427     5.7458    -0.0743 C.ar    
   6 N6             1.4817     2.2683    -0.6455 N.pl3   
   7 C7             2.6588     1.5425    -0.4356 C.2     
   8 C8             2.7481     0.1516    -0.2539 C.2     
   9 N9             3.8714     2.0418    -0.3801 N.2     
  10 N10            4.7683     0.9894    -0.1559 N.pl3   
  11 C11            4.0516    -0.1625    -0.0823 C.2     
  12 C12            6.1563     1.1038    -0.0334 C.ar    
  13 C13            7.0063     0.1916    -0.6555 C.ar    
  14 C14            6.7258     2.1365     0.7095 C.ar    
  15 C15            8.0998     2.2144     0.8060 C.ar    
  16 N16            8.8714     1.3275     0.2064 N.ar    
  17 C17            8.3707     0.3392    -0.5100 C.ar    
  18 C18            8.7275     3.3267     1.6059 C.3     
  19 H19            9.0368    -0.3661    -0.9846 H       
  20 C20            2.5054     4.3625    -0.0165 C.ar    
  21 O21            1.8530     7.7734    -0.7328 O.3     
  22 C22            2.7033     7.9176     0.4202 C.3     
  23 O23            3.3847     6.6520     0.5030 O.3     
  24 F24            3.6193     8.9575     0.2285 F       
  25 F25            1.9384     8.1402     1.5702 F       
  26 C26            4.6099    -1.5430     0.1496 C.3     
  27 C27            4.7334    -2.2746    -1.1884 C.3     
  28 C28            5.4275    -3.6207    -0.9715 C.3     
  29 C29            5.6631    -4.2968    -2.3237 C.3     
  30 O30            3.4308    -2.4928    -1.7340 O.3     
  31 H31           -0.1768     3.8130    -2.0044 H       
  32 H32           -0.1052     6.2697    -2.1160 H       
  33 H33            0.6368     1.8030    -0.7482 H       
  34 H34            1.9213    -0.5433    -0.2514 H       
  35 H35            6.6029    -0.6199    -1.2431 H       
  36 H36            6.1001     2.8659     1.2024 H       
  37 H37            8.8533     3.0046     2.6396 H       
  38 H38            9.7005     3.5749     1.1818 H       
  39 H39            8.0829     4.2051     1.5749 H       
  40 H40            3.2348     3.8265     0.5727 H       
  41 H41            5.5934    -1.4641     0.6128 H       
  42 H42            3.9421    -2.0992     0.8075 H       
  43 H43            5.3205    -1.6703    -1.8800 H       
  44 H44            6.3840    -3.4603    -0.4740 H       
  45 H45            4.7978    -4.2584    -0.3512 H       
  46 H46            6.2929    -3.6590    -2.9440 H       
  47 H47            6.1577    -5.2557    -2.1691 H       
  48 H48            4.7067    -4.4572    -2.8212 H       
  49 H49            2.8523    -3.0246    -1.1704 H       
@<TRIPOS>BOND
   1    1    2 ar
   2    1    6 1
   3    1   20 ar
   4    2    3 ar
   5    2   31 1
   6    3    4 ar
   7    3   32 1
   8    4    5 ar
   9    4   21 1
  10    5   20 ar
  11    5   23 1
  12    6    7 1
  13    6   33 1
  14    7    8 1
  15    7    9 2
  16    8   11 2
  17    8   34 1
  18    9   10 1
  19   10   11 1
  20   10   12 1
  21   11   26 1
  22   12   13 ar
  23   12   14 ar
  24   13   17 ar
  25   13   35 1
  26   14   15 ar
  27   14   36 1
  28   15   16 ar
  29   15   18 1
  30   16   17 ar
  31   17   19 1
  32   18   37 1
  33   18   38 1
  34   18   39 1
  35   20   40 1
  36   21   22 1
  37   22   23 1
  38   22   24 1
  39   22   25 1
  40   26   27 1
  41   26   41 1
  42   26   42 1
  43   27   28 1
  44   27   30 1
  45   27   43 1
  46   28   29 1
  47   28   44 1
  48   28   45 1
  49   29   46 1
  50   29   47 1
  51   29   48 1
  52   30   49 1

#	End of record

