#	Name: ASD09116070
#	Creating user name:	WinNT
#	Creation time:	15. 06. 2019 21:20

#	Modifying user name:	WinNT
#	Modification time:	15. 06. 2019 21:20

#	Program:	/corina/corina34_cracker 3.40 0067  02.08.2006

@<TRIPOS>MOLECULE
ASD09116070
  76   81    0    0    0
SMALL
NO_CHARGES


@<TRIPOS>ATOM
   1 C1             4.3134    -1.1573    -3.9187 C.ar    
   2 N2             3.4734    -2.0635    -3.2676 N.pl3   
   3 N3             2.8444    -1.8840    -2.0250 N.2     
   4 C4             2.1511    -2.9714    -1.7864 C.2     
   5 N5             2.3089    -3.8221    -2.8073 N.2     
   6 C6             3.0997    -3.2862    -3.7122 C.2     
   7 N7             3.4878    -3.8720    -4.9022 N.pl3   
   8 N8             1.3749    -3.2041    -0.6510 N.pl3   
   9 C9             4.2108     0.2096    -3.6505 C.ar    
  10 N10            5.2130    -1.5924    -4.7877 N.ar    
  11 N11            6.0048    -0.7973    -5.4169 N.ar    
  12 C12            5.9644     0.5022    -5.2339 C.ar    
  13 C13            5.0660     1.0534    -4.3278 C.ar    
  14 C14            0.7691    -4.4522    -0.4607 C.ar    
  15 C15            1.3655    -5.5984    -0.9700 C.ar    
  16 C16            0.7682    -6.8290    -0.7823 C.ar    
  17 C17           -0.4291    -6.9206    -0.0847 C.ar    
  18 C18           -1.0254    -5.7745     0.4246 C.ar    
  19 C19           -0.4250    -4.5446     0.2423 C.ar    
  20 N20           -1.0350    -8.1681     0.1047 N.3     
  21 C21           -2.2859    -8.0360     0.8646 C.3     
  22 C22           -0.1163    -9.1047     0.7668 C.3     
  23 C23           -0.7864   -10.4758     0.8835 C.3     
  24 N24           -2.0373   -10.3437     1.6434 N.3     
  25 C25           -2.9560    -9.4071     0.9812 C.3     
  26 C26           -2.6732   -11.6529     1.8422 C.3     
  27 C27           -3.9017   -11.4921     2.7398 C.3     
  28 C28           -3.1018   -12.2225     0.4884 C.3     
  29 C29           -3.7642   -13.5861     0.6954 C.3     
  30 C30           -4.9927   -13.4253     1.5931 C.3     
  31 C31           -4.5640   -12.8557     2.9469 C.3     
  32 C32            6.8562     1.4539    -5.9860 C.3     
  33 C33            8.0662     1.8422    -5.1992 C.3     
  34 C34            7.9114     2.8903    -4.1144 C.3     
  35 C35            7.2229     2.2845    -2.8778 C.3     
  36 C36            5.7801     2.8583    -2.8099 C.3     
  37 C37            5.0651     2.5408    -4.1171 C.3     
  38 H38            3.1716    -4.7599    -5.1314 H       
  39 H39            4.0764    -3.3953    -5.5082 H       
  40 H40            1.2546    -2.5013     0.0066 H       
  41 H41            3.4905     0.5905    -2.9417 H       
  42 H42            2.2963    -5.5270    -1.5131 H       
  43 H43            1.2320    -7.7204    -1.1784 H       
  44 H44           -1.9565    -5.8458     0.9671 H       
  45 H45           -0.8888    -3.6533     0.6384 H       
  46 H46           -2.0673    -7.6522     1.8611 H       
  47 H47           -2.9543    -7.3474     0.3478 H       
  48 H48            0.7970    -9.1952     0.1788 H       
  49 H49            0.1270    -8.7330     1.7622 H       
  50 H50           -1.0050   -10.8596    -0.1130 H       
  51 H51           -0.1180   -11.1644     1.4002 H       
  52 H52           -3.8693    -9.3167     1.5693 H       
  53 H53           -3.1993    -9.7788    -0.0141 H       
  54 H54           -1.9645   -12.3331     2.3146 H       
  55 H55           -3.5964   -11.0863     3.7043 H       
  56 H56           -4.6104   -10.8120     2.2674 H       
  57 H57           -3.8105   -11.5424     0.0159 H       
  58 H58           -2.2266   -12.3371    -0.1512 H       
  59 H59           -4.0695   -13.9919    -0.2690 H       
  60 H60           -3.0555   -14.2663     1.1679 H       
  61 H61           -5.7014   -12.7452     1.1207 H       
  62 H62           -5.4645   -14.3968     1.7406 H       
  63 H63           -3.8553   -13.5359     3.4193 H       
  64 H64           -5.4392   -12.7412     3.5864 H       
  65 H65            7.1756     0.9797    -6.9140 H       
  66 H66            6.2889     2.3527    -6.2280 H       
  67 H67            8.4619     0.9396    -4.7334 H       
  68 H68            8.8170     2.2022    -5.9026 H       
  69 H69            8.8952     3.2650    -3.8320 H       
  70 H70            7.3094     3.7159    -4.4940 H       
  71 H71            7.1846     1.1992    -2.9709 H       
  72 H72            7.7724     2.5595    -1.9774 H       
  73 H73            5.2434     2.4001    -1.9791 H       
  74 H74            5.8227     3.9383    -2.6686 H       
  75 H75            5.5839     3.0262    -4.9438 H       
  76 H76            4.0376     2.9010    -4.0677 H       
@<TRIPOS>BOND
   1    1    2 1
   2    1    9 ar
   3    1   10 ar
   4    2    3 1
   5    2    6 1
   6    3    4 2
   7    4    5 1
   8    4    8 1
   9    5    6 2
  10    6    7 1
  11    7   38 1
  12    7   39 1
  13    8   14 1
  14    8   40 1
  15    9   13 ar
  16    9   41 1
  17   10   11 ar
  18   11   12 ar
  19   12   13 ar
  20   12   32 1
  21   13   37 1
  22   14   15 ar
  23   14   19 ar
  24   15   16 ar
  25   15   42 1
  26   16   17 ar
  27   16   43 1
  28   17   18 ar
  29   17   20 1
  30   18   19 ar
  31   18   44 1
  32   19   45 1
  33   20   21 1
  34   20   22 1
  35   21   25 1
  36   21   46 1
  37   21   47 1
  38   22   23 1
  39   22   48 1
  40   22   49 1
  41   23   24 1
  42   23   50 1
  43   23   51 1
  44   24   25 1
  45   24   26 1
  46   25   52 1
  47   25   53 1
  48   26   27 1
  49   26   28 1
  50   26   54 1
  51   27   31 1
  52   27   55 1
  53   27   56 1
  54   28   29 1
  55   28   57 1
  56   28   58 1
  57   29   30 1
  58   29   59 1
  59   29   60 1
  60   30   31 1
  61   30   61 1
  62   30   62 1
  63   31   63 1
  64   31   64 1
  65   32   33 1
  66   32   65 1
  67   32   66 1
  68   33   34 1
  69   33   67 1
  70   33   68 1
  71   34   35 1
  72   34   69 1
  73   34   70 1
  74   35   36 1
  75   35   71 1
  76   35   72 1
  77   36   37 1
  78   36   73 1
  79   36   74 1
  80   37   75 1
  81   37   76 1

#	End of record

