#	Name: ASD01200041
#	Creating user name:	WinNT
#	Creation time:	15. 06. 2019 19:08

#	Modifying user name:	WinNT
#	Modification time:	15. 06. 2019 19:08

#	Program:	/corina/corina34_cracker 3.40 0067  02.08.2006

@<TRIPOS>MOLECULE
ASD01200041
  38   40    0    0    0
SMALL
NO_CHARGES


@<TRIPOS>ATOM
   1 C1             0.0598     1.0562     0.1941 C.ar    
   2 C2            -0.2947    -0.0458     0.9637 C.ar    
   3 C3            -1.6186    -0.4158     1.0841 C.ar    
   4 C4            -2.6076     0.3121     0.4357 C.ar    
   5 C5            -2.2560     1.4257    -0.3428 C.ar    
   6 C6            -0.9129     1.7948    -0.4537 C.ar    
   7 C7            -3.2982     2.2048    -1.0350 C.2     
   8 N8            -2.9728     3.3437    -1.6780 N.am    
   9 C9            -3.9549     4.0779    -2.3303 C.2     
  10 N10           -3.7499     5.1831    -2.9763 N.2     
  11 C11           -4.8008     5.7501    -3.5389 C.2     
  12 C12           -5.9481     5.0928    -3.3599 C.2     
  13 S13           -5.6090     3.6519    -2.4046 S.3     
  14 O14           -4.4518     1.8199    -1.0261 O.2     
  15 C15           -4.7119     7.0356    -4.3202 C.3     
  16 O16            1.3674     1.4122     0.0826 O.3     
  17 N17           -3.9420    -0.0615     0.5569 N.pl3   
  18 C18            1.8655     2.3015     0.9820 C.ar    
  19 C19            3.1918     2.7069     0.8985 C.ar    
  20 C20            3.6951     3.6124     1.8152 C.ar    
  21 C21            2.8793     4.1127     2.8131 C.ar    
  22 C22            1.5592     3.7101     2.8974 C.ar    
  23 C23            1.0493     2.8103     1.9812 C.ar    
  24 F24            3.9889     2.2172    -0.0761 F       
  25 H25            0.4703    -0.6157     1.4699 H       
  26 H26           -1.8860    -1.2734     1.6836 H       
  27 H27           -0.6345     2.6507    -1.0507 H       
  28 H28           -2.0527     3.6507    -1.6851 H       
  29 H29           -6.9151     5.3900    -3.7381 H       
  30 H30           -4.5188     6.8107    -5.3691 H       
  31 H31           -5.6523     7.5799    -4.2325 H       
  32 H32           -3.9005     7.6462    -3.9242 H       
  33 H33           -4.1707    -0.9745     0.7914 H       
  34 H34           -4.6439     0.5911     0.4069 H       
  35 H35            4.7258     3.9284     1.7516 H       
  36 H36            3.2740     4.8190     3.5284 H       
  37 H37            0.9245     4.1028     3.6781 H       
  38 H38            0.0179     2.4971     2.0480 H       
@<TRIPOS>BOND
   1    1    2 ar
   2    1   16 1
   3    1    6 ar
   4    2    3 ar
   5    2   25 1
   6    3    4 ar
   7    3   26 1
   8    4    5 ar
   9    4   17 1
  10    5    6 ar
  11    5    7 1
  12    6   27 1
  13    7    8 am
  14    7   14 2
  15    8    9 1
  16    8   28 1
  17    9   10 2
  18    9   13 1
  19   10   11 1
  20   11   12 2
  21   11   15 1
  22   12   13 1
  23   12   29 1
  24   15   30 1
  25   15   31 1
  26   15   32 1
  27   16   18 1
  28   17   33 1
  29   17   34 1
  30   18   19 ar
  31   18   23 ar
  32   19   20 ar
  33   19   24 1
  34   20   21 ar
  35   20   35 1
  36   21   22 ar
  37   21   36 1
  38   22   23 ar
  39   22   37 1
  40   23   38 1

#	End of record

