#	Name: ASD01882516
#	Creating user name:	WinNT
#	Creation time:	15. 06. 2019 19:44

#	Modifying user name:	WinNT
#	Modification time:	15. 06. 2019 19:44

#	Program:	/corina/corina34_cracker 3.40 0067  02.08.2006

@<TRIPOS>MOLECULE
ASD01882516
  49   53    0    0    0
SMALL
NO_CHARGES


@<TRIPOS>ATOM
   1 C1             0.7325     1.4200     1.0811 C.2     
   2 C2             0.7681     0.0147     1.0979 C.2     
   3 C3             1.2066    -0.6546    -0.0130 C.2     
   4 C4             1.6135     0.0753    -1.1506 C.2     
   5 C5             1.5712     1.4222    -1.1448 C.2     
   6 N6             1.1358     2.0991    -0.0428 N.pl3   
   7 N7             0.5215     3.5067     1.4678 N.2     
   8 N8             0.3653     2.3319     1.9687 N.2     
   9 C9             0.9860     3.4230     0.2489 C.2     
  10 N10            1.2514    -2.0467    -0.0204 N.pl3   
  11 C11            2.5331    -2.7538    -0.1467 C.3     
  12 C12            2.4377    -3.7432    -1.3123 C.3     
  13 C13            1.2317    -4.6611    -1.0996 C.3     
  14 C14           -0.0494    -3.8245    -1.0701 C.3     
  15 C15            0.0184    -2.8360     0.1039 C.3     
  16 C16            1.1545    -5.6580    -2.2271 C.ar    
  17 C17            1.2243    -7.0147    -1.9576 C.ar    
  18 C18            1.1529    -7.9300    -2.9932 C.ar    
  19 C19            1.0117    -7.4881    -4.2976 C.ar    
  20 C20            0.9421    -6.1314    -4.5647 C.ar    
  21 C21            1.0082    -5.2183    -3.5290 C.ar    
  22 F22            0.9423    -8.3804    -5.3096 F       
  23 F23            1.3626    -7.4445    -0.6843 F       
  24 C24            1.2967     4.5782    -0.6677 C.3     
  25 C25            0.0527     4.9285    -1.4865 C.3     
  26 C26            0.1286     6.1559    -2.3968 C.3     
  27 C27            0.1330     4.7517    -3.0041 C.3     
  28 Cl28           0.2630    -0.8607     2.5093 Cl      
  29 H29            1.9606    -0.4479    -2.0294 H       
  30 H30            1.8851     1.9710    -2.0203 H       
  31 H31            3.3292    -2.0352    -0.3416 H       
  32 H32            2.7442    -3.2950     0.7756 H       
  33 H33            2.3169    -3.1945    -2.2463 H       
  34 H34            3.3473    -4.3421    -1.3566 H       
  35 H35            1.3412    -5.1911    -0.1534 H       
  36 H36           -0.1467    -3.2750    -2.0064 H       
  37 H37           -0.9099    -4.4812    -0.9419 H       
  38 H38            0.0286    -3.3837     1.0463 H       
  39 H39           -0.8453    -2.1717     0.0744 H       
  40 H40            1.2077    -8.9881    -2.7840 H       
  41 H41            0.8319    -5.7864    -5.5822 H       
  42 H42            0.9497    -4.1603    -3.7378 H       
  43 H43            1.5964     5.4422    -0.0745 H       
  44 H44            2.1081     4.3002    -1.3404 H       
  45 H45           -0.9020     4.7176    -1.0047 H       
  46 H46           -0.7762     6.7522    -2.5141 H       
  47 H47            1.0649     6.7139    -2.4123 H       
  48 H48            1.0721     4.3857    -3.4192 H       
  49 H49           -0.7690     4.4241    -3.5211 H       
@<TRIPOS>BOND
   1    1    2 1
   2    1    6 1
   3    1    8 2
   4    2    3 2
   5    2   28 1
   6    3    4 1
   7    3   10 1
   8    4    5 2
   9    4   29 1
  10    5    6 1
  11    5   30 1
  12    6    9 1
  13    7    8 1
  14    7    9 2
  15    9   24 1
  16   10   11 1
  17   10   15 1
  18   11   12 1
  19   11   31 1
  20   11   32 1
  21   12   13 1
  22   12   33 1
  23   12   34 1
  24   13   14 1
  25   13   16 1
  26   13   35 1
  27   14   15 1
  28   14   36 1
  29   14   37 1
  30   15   38 1
  31   15   39 1
  32   16   17 ar
  33   16   21 ar
  34   17   18 ar
  35   17   23 1
  36   18   19 ar
  37   18   40 1
  38   19   20 ar
  39   19   22 1
  40   20   21 ar
  41   20   41 1
  42   21   42 1
  43   24   25 1
  44   24   43 1
  45   24   44 1
  46   25   26 1
  47   25   27 1
  48   25   45 1
  49   26   27 1
  50   26   46 1
  51   26   47 1
  52   27   48 1
  53   27   49 1

#	End of record

