#	Name: ASD08070029
#	Creating user name:	WinNT
#	Creation time:	15. 06. 2019 21:14

#	Modifying user name:	WinNT
#	Modification time:	15. 06. 2019 21:14

#	Program:	/corina/corina34_cracker 3.40 0067  02.08.2006

@<TRIPOS>MOLECULE
ASD08070029
  42   43    0    0    0
SMALL
NO_CHARGES


@<TRIPOS>ATOM
   1 C1            -0.0170     1.4014     0.0097 C.ar    
   2 C2             0.0021    -0.0041     0.0020 C.ar    
   3 C3            -1.2003    -0.7173     0.0097 C.ar    
   4 C4            -2.3892    -0.0505     0.0246 C.ar    
   5 C5            -2.4168     1.3498     0.0324 C.ar    
   6 C6            -1.2247     2.0738     0.0299 C.ar    
   7 O7             1.2755     1.7966    -0.0005 O.3     
   8 C8             2.0472     0.6994    -0.0137 C.2     
   9 N9             1.3098    -0.3714    -0.0124 N.2     
  10 C10            3.5541     0.7069    -0.0281 C.3     
  11 C11           -3.7104     2.0609     0.0481 C.2     
  12 N12           -4.8632     1.3626     0.0549 N.am    
  13 O13           -3.7359     3.2764     0.0548 O.2     
  14 C14           -6.1469     2.0683     0.0704 C.3     
  15 C15           -6.5464     2.4319    -1.3610 C.3     
  16 C16           -7.2180     1.1650     0.6851 C.3     
  17 C17           -6.8823     0.9030     2.1546 C.3     
  18 C18           -7.9534    -0.0003     2.7692 C.3     
  19 C19           -7.8871     3.1688    -1.3448 C.3     
  20 C20           -5.4753     3.3351    -1.9757 C.3     
  21 H21           -1.1872    -1.7972     0.0034 H       
  22 H22           -3.3157    -0.6055     0.0301 H       
  23 H23           -1.2451     3.1536     0.0358 H       
  24 H24            3.9273     0.7032     0.9961 H       
  25 H25            3.9169    -0.1785    -0.5502 H       
  26 H26            3.9081     1.6014    -0.5405 H       
  27 H27           -4.8428     0.3928     0.0495 H       
  28 H28           -6.0544     2.9778     0.6640 H       
  29 H29           -6.6390     1.5223    -1.9546 H       
  30 H30           -8.1895     1.6545     0.6160 H       
  31 H31           -7.2488     0.2187     0.1451 H       
  32 H32           -5.9108     0.4135     2.2237 H       
  33 H33           -6.8515     1.8494     2.6946 H       
  34 H34           -8.9248     0.4892     2.7001 H       
  35 H35           -7.9841    -0.9466     2.2292 H       
  36 H36           -7.7142    -0.1869     3.8161 H       
  37 H37           -7.7946     4.0784    -0.7513 H       
  38 H38           -8.1717     3.4278    -2.3646 H       
  39 H39           -8.6502     2.5253    -0.9069 H       
  40 H40           -4.5202     2.8101    -1.9872 H       
  41 H41           -5.7599     3.5941    -2.9955 H       
  42 H42           -5.3828     4.2447    -1.3821 H       
@<TRIPOS>BOND
   1    1    2 ar
   2    1    7 1
   3    1    6 ar
   4    2    3 ar
   5    2    9 1
   6    3    4 ar
   7    3   21 1
   8    4    5 ar
   9    4   22 1
  10    5    6 ar
  11    5   11 1
  12    6   23 1
  13    7    8 1
  14    8    9 2
  15    8   10 1
  16   10   24 1
  17   10   25 1
  18   10   26 1
  19   11   12 am
  20   11   13 2
  21   12   14 1
  22   12   27 1
  23   14   15 1
  24   14   16 1
  25   14   28 1
  26   15   19 1
  27   15   20 1
  28   15   29 1
  29   16   17 1
  30   16   30 1
  31   16   31 1
  32   17   18 1
  33   17   32 1
  34   17   33 1
  35   18   34 1
  36   18   35 1
  37   18   36 1
  38   19   37 1
  39   19   38 1
  40   19   39 1
  41   20   40 1
  42   20   41 1
  43   20   42 1

#	End of record

