#	Name: ASD01208637
#	Creating user name:	WinNT
#	Creation time:	15. 06. 2019 19:10

#	Modifying user name:	WinNT
#	Modification time:	15. 06. 2019 19:10

#	Program:	/corina/corina34_cracker 3.40 0067  02.08.2006

@<TRIPOS>MOLECULE
ASD01208637
  94   99    0    0    0
SMALL
NO_CHARGES


@<TRIPOS>ATOM
   1 C1            -0.4766     1.3075     0.4114 C.ar    
   2 C2            -0.4360    -0.0708     0.5134 C.ar    
   3 C3             0.7872    -0.7180     0.4490 C.ar    
   4 C4             1.9346     0.0517     0.2829 C.ar    
   5 C5             1.8132     1.4304     0.1884 C.ar    
   6 N6             0.6297     2.0075     0.2546 N.ar    
   7 S7            -2.0283     2.1390     0.4848 S.o2    
   8 O8            -2.4291     2.3600    -0.8604 O.2     
   9 O9            -2.8210     1.4271     1.4250 O.2     
  10 N10           -1.7528     3.6338     1.1422 N.am    
  11 O11            3.1567    -0.5388     0.2147 O.3     
  12 C12            3.2150    -1.8946     0.2853 C.ar    
  13 C13            2.8851    -2.6611    -0.8237 C.ar    
  14 C14            2.9434    -4.0455    -0.7571 C.ar    
  15 C15            3.3313    -4.6687     0.4176 C.ar    
  16 C16            3.6637    -3.9021     1.5349 C.ar    
  17 C17            3.6089    -2.5095     1.4621 C.ar    
  18 N18            4.4277    -3.9304     3.9502 N.pl3   
  19 C19            4.0782    -4.5629     2.7905 C.2     
  20 C20            4.1779    -5.9210     2.9920 C.2     
  21 C21            4.5987    -6.1229     4.3074 C.2     
  22 C22            4.7493    -4.8825     4.8886 C.2     
  23 O23            5.3082    -3.3795     6.7818 O.3     
  24 C24            5.1791    -4.6226     6.2700 C.2     
  25 N25            5.4701    -5.5687     7.1145 N.2     
  26 C26            5.8431    -4.9469     8.4000 C.3     
  27 C27            5.3302    -3.4976     8.2191 C.3     
  28 C28            3.9262    -3.3348     8.8049 C.3     
  29 O29            2.6189    -4.7915    -1.8458 O.3     
  30 C30            2.7923    -6.2058    -1.7383 C.3     
  31 C31            2.9753    -6.8049    -3.1342 C.3     
  32 C32            1.5580    -6.8221    -1.0767 C.3     
  33 O33            1.7755    -6.6274    -3.8897 O.3     
  34 C34            1.8406    -7.1547    -5.2163 C.3     
  35 C35           -1.4320     4.7685     0.2729 C.3     
  36 C36           -2.6918     5.5347    -0.0384 C.ar    
  37 C37           -3.0887     6.5734     0.7834 C.ar    
  38 C38           -4.2431     7.2773     0.5002 C.ar    
  39 C39           -5.0044     6.9412    -0.6098 C.ar    
  40 C40           -4.6040     5.8985    -1.4328 C.ar    
  41 C41           -3.4458     5.2014    -1.1484 C.ar    
  42 O42           -6.1407     7.6318    -0.8903 O.3     
  43 C43           -6.8744     7.2307    -2.0491 C.3     
  44 C44           -1.8298     3.8214     2.5931 C.3     
  45 C45           -0.4508     3.7022     3.1890 C.ar    
  46 C46            0.3447     4.8257     3.3183 C.ar    
  47 C47            1.6092     4.7191     3.8642 C.ar    
  48 C48            2.0808     3.4834     4.2829 C.ar    
  49 C49            1.2807     2.3576     4.1521 C.ar    
  50 C50            0.0148     2.4704     3.6107 C.ar    
  51 O51            3.3246     3.3759     4.8198 O.3     
  52 C52            3.7441     2.0725     5.2290 C.3     
  53 H53           -1.3471    -0.6361     0.6422 H       
  54 H54            0.8487    -1.7934     0.5262 H       
  55 H55            2.6972     2.0373     0.0597 H       
  56 H56            2.5819    -2.1785    -1.7411 H       
  57 H57            3.3760    -5.7466     0.4686 H       
  58 H58            3.8694    -1.9123     2.3235 H       
  59 H59            4.4493    -2.9704     4.0872 H       
  60 H60            3.9682    -6.6908     2.2642 H       
  61 H61            4.7741    -7.0766     4.7828 H       
  62 H62            5.3369    -5.4379     9.2311 H       
  63 H63            6.9239    -4.9624     8.5407 H       
  64 H64            6.0219    -2.7798     8.6601 H       
  65 H65            3.2658    -4.0916     8.3815 H       
  66 H66            3.9682    -3.4540     9.8876 H       
  67 H67            3.5443    -2.3429     8.5631 H       
  68 H68            3.6734    -6.4189    -1.1330 H       
  69 H69            3.8005    -6.3030    -3.6395 H       
  70 H70            3.1958    -7.8688    -3.0469 H       
  71 H71            1.4275    -6.3953    -0.0822 H       
  72 H72            0.6768    -6.6090    -1.6819 H       
  73 H73            1.6902    -7.9009    -0.9946 H       
  74 H74            2.6423    -6.6601    -5.7649 H       
  75 H75            2.0376    -8.2258    -5.1723 H       
  76 H76            0.8918    -6.9803    -5.7237 H       
  77 H77           -0.7233     5.4245     0.7784 H       
  78 H78           -0.9908     4.4026    -0.6542 H       
  79 H79           -2.4959     6.8345     1.6476 H       
  80 H80           -4.5529     8.0884     1.1425 H       
  81 H81           -5.1950     5.6349    -2.2975 H       
  82 H82           -3.1311     4.3927    -1.7914 H       
  83 H83           -6.2436     7.3336    -2.9321 H       
  84 H84           -7.1827     6.1907    -1.9420 H       
  85 H85           -7.7565     7.8619    -2.1572 H       
  86 H86           -2.2355     4.8094     2.8107 H       
  87 H87           -2.4789     3.0591     3.0241 H       
  88 H88           -0.0228     5.7874     2.9919 H       
  89 H89            2.2303     5.5969     3.9646 H       
  90 H90            1.6456     1.3945     4.4772 H       
  91 H91           -0.6103     1.5951     3.5130 H       
  92 H92            4.7526     2.1275     5.6388 H       
  93 H93            3.0625     1.6939     5.9907 H       
  94 H94            3.7371     1.4021     4.3696 H       
@<TRIPOS>BOND
   1    1    2 ar
   2    1    6 ar
   3    1    7 1
   4    2    3 ar
   5    2   53 1
   6    3    4 ar
   7    3   54 1
   8    4    5 ar
   9    4   11 1
  10    5    6 ar
  11    5   55 1
  12    7    8 2
  13    7    9 2
  14    7   10 am
  15   10   35 1
  16   10   44 1
  17   11   12 1
  18   12   13 ar
  19   12   17 ar
  20   13   14 ar
  21   13   56 1
  22   14   15 ar
  23   14   29 1
  24   15   16 ar
  25   15   57 1
  26   16   17 ar
  27   16   19 1
  28   17   58 1
  29   18   19 1
  30   18   22 1
  31   18   59 1
  32   19   20 2
  33   20   21 1
  34   20   60 1
  35   21   22 2
  36   21   61 1
  37   22   24 1
  38   23   24 1
  39   23   27 1
  40   24   25 2
  41   25   26 1
  42   26   27 1
  43   26   62 1
  44   26   63 1
  45   27   28 1
  46   27   64 1
  47   28   65 1
  48   28   66 1
  49   28   67 1
  50   29   30 1
  51   30   31 1
  52   30   32 1
  53   30   68 1
  54   31   33 1
  55   31   69 1
  56   31   70 1
  57   32   71 1
  58   32   72 1
  59   32   73 1
  60   33   34 1
  61   34   74 1
  62   34   75 1
  63   34   76 1
  64   35   36 1
  65   35   77 1
  66   35   78 1
  67   36   37 ar
  68   36   41 ar
  69   37   38 ar
  70   37   79 1
  71   38   39 ar
  72   38   80 1
  73   39   40 ar
  74   39   42 1
  75   40   41 ar
  76   40   81 1
  77   41   82 1
  78   42   43 1
  79   43   83 1
  80   43   84 1
  81   43   85 1
  82   44   45 1
  83   44   86 1
  84   44   87 1
  85   45   46 ar
  86   45   50 ar
  87   46   47 ar
  88   46   88 1
  89   47   48 ar
  90   47   89 1
  91   48   49 ar
  92   48   51 1
  93   49   50 ar
  94   49   90 1
  95   50   91 1
  96   51   52 1
  97   52   92 1
  98   52   93 1
  99   52   94 1

#	End of record

