#	Name: ASD05430046
#	Creating user name:	WinNT
#	Creation time:	15. 06. 2019 20:59

#	Modifying user name:	WinNT
#	Modification time:	15. 06. 2019 20:59

#	Program:	/corina/corina34_cracker 3.40 0067  02.08.2006

@<TRIPOS>MOLECULE
ASD05430046
  61   66    0    0    0
SMALL
NO_CHARGES


@<TRIPOS>ATOM
   1 C1            -0.0813     1.1933    -0.3636 C.ar    
   2 C2            -0.0152    -0.0172     0.3255 C.ar    
   3 C3            -1.1540    -0.5442     0.9211 C.ar    
   4 C4            -2.3544     0.1266     0.8338 C.ar    
   5 C5            -2.4282     1.3412     0.1443 C.ar    
   6 C6            -1.2808     1.8743    -0.4507 C.ar    
   7 C7            -4.8568    -0.1327    -0.2108 C.3     
   8 C8            -4.8620     1.3704    -0.0437 C.2     
   9 C9            -3.7098     2.0594     0.0501 C.2     
  10 C10           -6.1855    -0.5842    -0.8240 C.3     
  11 C11           -6.9105     0.4511    -1.6913 C.3     
  12 N12           -7.1406     1.6548    -0.8923 N.pl3   
  13 C13           -6.1628     2.0597     0.0131 C.2     
  14 C14           -8.3581     2.4545    -1.0290 C.3     
  15 C15           -8.7577     2.9677     0.3586 C.3     
  16 O16           -7.6562     3.6324     0.9683 O.3     
  17 N17           -6.4042     2.9938     0.8754 N.2     
  18 C18           -8.0985     3.6215    -1.9464 C.ar    
  19 C19           -9.0598     4.0071    -2.8617 C.ar    
  20 O20            1.0354     1.7064    -0.9449 O.3     
  21 C21            0.8948     2.9501    -1.6345 C.3     
  22 C22            1.7764    -1.1976     1.5602 C.2     
  23 N23            1.2030    -0.7039     0.4170 N.pl3   
  24 C24            2.9341    -1.7808     1.1954 C.2     
  25 N25            3.0689    -1.6497    -0.1326 N.2     
  26 C26            2.0384    -1.0065    -0.6104 C.2     
  27 C27            3.9099    -2.4624     2.1196 C.3     
  28 C28           -8.8235     5.0792    -3.7050 C.ar    
  29 C29           -7.6219     5.7660    -3.6311 C.ar    
  30 C30           -6.6592     5.3778    -2.7127 C.ar    
  31 C31           -6.9016     4.3085    -1.8675 C.ar    
  32 F32           -7.3892     6.8122    -4.4535 F       
  33 C33           -6.3035    -2.0523    -1.2406 C.3     
  34 C34           -7.0496    -1.5448    -0.0051 C.3     
  35 F35           -9.7632     5.4554    -4.5997 F       
  36 F36           -5.4870     6.0454    -2.6390 F       
  37 H37           -1.0985    -1.4822     1.4535 H       
  38 H38           -3.2383    -0.2857     1.2976 H       
  39 H39           -1.3333     2.8121    -0.9837 H       
  40 H40           -4.0367    -0.4223    -0.8677 H       
  41 H41           -4.7267    -0.6058     0.7625 H       
  42 H42           -3.7253     3.1393     0.0562 H       
  43 H43           -6.2952     0.6985    -2.5563 H       
  44 H44           -7.8658     0.0448    -2.0237 H       
  45 H45           -9.1588     1.8374    -1.4367 H       
  46 H46           -9.5909     3.6636     0.2607 H       
  47 H47           -9.0624     2.1267     0.9814 H       
  48 H48           -9.9959     3.4715    -2.9192 H       
  49 H49            0.5494     3.7145    -0.9384 H       
  50 H50            1.8580     3.2459    -2.0503 H       
  51 H51            0.1698     2.8386    -2.4408 H       
  52 H52            1.3783    -1.1281     2.5617 H       
  53 H53            1.8772    -0.7567    -1.6487 H       
  54 H54            3.6528    -3.5182     2.2049 H       
  55 H55            4.9188    -2.3654     1.7185 H       
  56 H56            3.8640    -1.9967     3.1040 H       
  57 H57           -6.1517     4.0056    -1.1517 H       
  58 H58           -6.8946    -2.2777    -2.1283 H       
  59 H59           -5.4369    -2.6931    -1.0774 H       
  60 H60           -6.6741    -1.8520     0.9710 H       
  61 H61           -8.1316    -1.4366    -0.0798 H       
@<TRIPOS>BOND
   1    1    2 ar
   2    1   20 1
   3    1    6 ar
   4    2    3 ar
   5    2   23 1
   6    3    4 ar
   7    3   37 1
   8    4    5 ar
   9    4   38 1
  10    5    6 ar
  11    5    9 1
  12    6   39 1
  13    7    8 1
  14    7   10 1
  15    7   40 1
  16    7   41 1
  17    8    9 2
  18    8   13 1
  19    9   42 1
  20   10   11 1
  21   10   33 1
  22   10   34 1
  23   11   12 1
  24   11   43 1
  25   11   44 1
  26   12   13 1
  27   12   14 1
  28   13   17 2
  29   14   15 1
  30   14   18 1
  31   14   45 1
  32   15   16 1
  33   15   46 1
  34   15   47 1
  35   16   17 1
  36   18   19 ar
  37   18   31 ar
  38   19   28 ar
  39   19   48 1
  40   20   21 1
  41   21   49 1
  42   21   50 1
  43   21   51 1
  44   22   23 1
  45   22   24 2
  46   22   52 1
  47   23   26 1
  48   24   25 1
  49   24   27 1
  50   25   26 2
  51   26   53 1
  52   27   54 1
  53   27   55 1
  54   27   56 1
  55   28   29 ar
  56   28   35 1
  57   29   30 ar
  58   29   32 1
  59   30   31 ar
  60   30   36 1
  61   31   57 1
  62   33   34 1
  63   33   58 1
  64   33   59 1
  65   34   60 1
  66   34   61 1

#	End of record

