#	Name: ASD00069181
#	Creating user name:	WinNT
#	Creation time:	15. 06. 2019 18:29

#	Modifying user name:	WinNT
#	Modification time:	15. 06. 2019 18:29

#	Program:	/corina/corina34_cracker 3.40 0067  02.08.2006

@<TRIPOS>MOLECULE
ASD00069181
  69   74    0    0    0
SMALL
NO_CHARGES


@<TRIPOS>ATOM
   1 C1            -0.1162     1.2215    -0.5559 C.2     
   2 N2            -0.0095     0.0152    -0.0447 N.2     
   3 C3             1.2349    -0.4357    -0.2468 C.2     
   4 C4             1.9328     0.5330    -0.9130 C.2     
   5 N5             1.0866     1.5692    -1.1058 N.pl3   
   6 C6            -1.3308     2.0571    -0.5439 C.2     
   7 O7            -1.3132     3.1628    -1.0501 O.2     
   8 N8            -2.4606     1.5955     0.0278 N.am    
   9 C9             1.4848    -3.8844     1.2341 C.ar    
  10 C10            0.9528    -2.6686     0.8571 C.ar    
  11 C11            1.7639    -1.7547     0.1784 C.ar    
  12 C12            3.0873    -2.1178    -0.0892 C.ar    
  13 C13            3.5384    -3.3540     0.3234 C.ar    
  14 N14            2.7395    -4.1881     0.9619 N.ar    
  15 C15            0.6230    -4.8763     1.9719 C.3     
  16 C16           -3.5788     2.4307     0.1430 C.ar    
  17 C17           -4.8631     1.8973     0.0426 C.ar    
  18 C18           -5.9674     2.7310     0.1582 C.ar    
  19 C19           -5.7904     4.0870     0.3724 C.ar    
  20 C20           -4.5161     4.6145     0.4713 C.ar    
  21 C21           -3.4117     3.7902     0.3630 C.ar    
  22 N22           -5.0387     0.5246    -0.1747 N.3     
  23 C23           -5.8000    -0.0885     0.9211 C.3     
  24 C24           -5.8472    -1.6055     0.7250 C.3     
  25 C25           -6.5081    -1.9210    -0.6197 C.3     
  26 C26           -5.7239    -1.2312    -1.7393 C.3     
  27 C27           -5.6803     0.2750    -1.4717 C.3     
  28 C28           -6.5035    -3.4110    -0.8458 C.2     
  29 O29           -5.5729    -4.0813    -0.4513 O.2     
  30 C30           -7.9707    -5.7933    -3.0723 C.3     
  31 C31           -7.6091    -5.4638    -1.6140 C.3     
  32 N32           -7.5335    -3.9986    -1.4863 N.am    
  33 C33           -8.6157    -3.1938    -2.0778 C.3     
  34 C34           -8.8850    -3.7313    -3.4936 C.3     
  35 C35           -7.5499    -3.7157    -4.2725 C.3     
  36 C36           -6.9344    -5.1039    -3.9888 C.3     
  37 O37           -9.2204    -5.1317    -3.3706 O.3     
  38 F38           -7.2139     2.2191     0.0612 F       
  39 H39            2.9652     0.4804    -1.2258 H       
  40 H40            1.2941     2.4050    -1.5522 H       
  41 H41           -2.4993     0.6848     0.3595 H       
  42 H42           -0.0753    -2.4267     1.0828 H       
  43 H43            3.7465    -1.4403    -0.6116 H       
  44 H44            4.5589    -3.6436     0.1209 H       
  45 H45            0.1179    -5.5231     1.2545 H       
  46 H46            1.2471    -5.4811     2.6298 H       
  47 H47           -0.1193    -4.3422     2.5650 H       
  48 H48           -6.6499     4.7348     0.4623 H       
  49 H49           -4.3832     5.6733     0.6382 H       
  50 H50           -2.4181     4.2054     0.4456 H       
  51 H51           -5.3171     0.1401     1.8712 H       
  52 H52           -6.8150     0.3090     0.9250 H       
  53 H53           -4.8332    -2.0054     0.7348 H       
  54 H54           -6.4256    -2.0587     1.5300 H       
  55 H55           -7.5350    -1.5555    -0.6155 H       
  56 H56           -4.7080    -1.6252    -1.7683 H       
  57 H57           -6.2143    -1.4169    -2.6949 H       
  58 H58           -6.6959     0.6707    -1.4567 H       
  59 H59           -5.1105     0.7675    -2.2596 H       
  60 H60           -8.0174    -6.8683    -3.2463 H       
  61 H61           -8.3780    -5.8529    -0.9465 H       
  62 H62           -6.6447    -5.9060    -1.3643 H       
  63 H63           -9.5168    -3.2848    -1.4713 H       
  64 H64           -8.3108    -2.1488    -2.1320 H       
  65 H65           -9.6612    -3.1610    -4.0039 H       
  66 H66           -7.7317    -3.5892    -5.3397 H       
  67 H67           -6.8988    -2.9255    -3.8986 H       
  68 H68           -5.9788    -5.0003    -3.4748 H       
  69 H69           -6.8118    -5.6641    -4.9158 H       
@<TRIPOS>BOND
   1    1    2 2
   2    1    5 1
   3    1    6 1
   4    2    3 1
   5    3    4 2
   6    3   11 1
   7    4    5 1
   8    4   39 1
   9    5   40 1
  10    6    7 2
  11    6    8 am
  12    8   16 1
  13    8   41 1
  14    9   10 ar
  15    9   14 ar
  16    9   15 1
  17   10   11 ar
  18   10   42 1
  19   11   12 ar
  20   12   13 ar
  21   12   43 1
  22   13   14 ar
  23   13   44 1
  24   15   45 1
  25   15   46 1
  26   15   47 1
  27   16   17 ar
  28   16   21 ar
  29   17   18 ar
  30   17   22 1
  31   18   19 ar
  32   18   38 1
  33   19   20 ar
  34   19   48 1
  35   20   21 ar
  36   20   49 1
  37   21   50 1
  38   22   23 1
  39   22   27 1
  40   23   24 1
  41   23   51 1
  42   23   52 1
  43   24   25 1
  44   24   53 1
  45   24   54 1
  46   25   26 1
  47   25   28 1
  48   25   55 1
  49   26   27 1
  50   26   56 1
  51   26   57 1
  52   27   58 1
  53   27   59 1
  54   28   29 2
  55   28   32 am
  56   30   31 1
  57   30   36 1
  58   30   37 1
  59   30   60 1
  60   31   32 1
  61   31   61 1
  62   31   62 1
  63   32   33 1
  64   33   34 1
  65   33   63 1
  66   33   64 1
  67   34   35 1
  68   34   37 1
  69   34   65 1
  70   35   36 1
  71   35   66 1
  72   35   67 1
  73   36   68 1
  74   36   69 1

#	End of record

