#	Name: ASD01410268
#	Creating user name:	WinNT
#	Creation time:	15. 06. 2019 19:17

#	Modifying user name:	WinNT
#	Modification time:	15. 06. 2019 19:17

#	Program:	/corina/corina34_cracker 3.40 0067  02.08.2006

@<TRIPOS>MOLECULE
ASD01410268
  30   31    0    0    0
SMALL
NO_CHARGES


@<TRIPOS>ATOM
   1 C1            -0.0165     1.3757     0.0329 C.ar    
   2 C2             0.0019    -0.0056     0.0281 C.ar    
   3 C3            -1.1849    -0.7223     0.0307 C.ar    
   4 C4            -2.3956    -0.0626     0.0388 C.ar    
   5 C5            -2.4280     1.3344     0.0442 C.ar    
   6 C6            -1.2267     2.0553     0.0468 C.ar    
   7 O7            -1.2462     3.4121     0.0521 O.3     
   8 Cl8            1.4759     2.2626     0.0289 Cl      
   9 C9            -3.7200     2.0462     0.0527 C.2     
  10 N10           -4.8734     1.3491     0.0553 N.am    
  11 C11           -7.2169     1.5471    -0.4934 C.ar    
  12 C12           -6.0954     2.0192     0.1761 C.ar    
  13 C13           -6.1895     3.1576     0.9661 C.ar    
  14 C14           -7.3973     3.8168     1.0839 C.ar    
  15 C15           -8.5131     3.3440     0.4162 C.ar    
  16 C16           -8.4223     2.2101    -0.3716 C.ar    
  17 Cl17          -1.1464    -2.4579     0.0234 Cl      
  18 Br18         -10.1653     4.2491     0.5804 Br      
  19 O19           -3.7443     3.2620     0.0575 O.2     
  20 C20           -1.2553     4.0559     1.3278 C.3     
  21 H21            0.9460    -0.5301     0.0218 H       
  22 H22           -3.3177    -0.6249     0.0405 H       
  23 H23           -4.8563     0.3827    -0.0266 H       
  24 H24           -7.1456     0.6646    -1.1120 H       
  25 H25           -5.3191     3.5267     1.4881 H       
  26 H26           -7.4711     4.7021     1.6981 H       
  27 H27           -9.2948     1.8432    -0.8917 H       
  28 H28           -2.1409     3.7481     1.8838 H       
  29 H29           -0.3611     3.7737     1.8836 H       
  30 H30           -1.2709     5.1369     1.1892 H       
@<TRIPOS>BOND
   1    1    2 ar
   2    1    8 1
   3    1    6 ar
   4    2    3 ar
   5    2   21 1
   6    3    4 ar
   7    3   17 1
   8    4    5 ar
   9    4   22 1
  10    5    6 ar
  11    5    9 1
  12    6    7 1
  13    7   20 1
  14    9   10 am
  15    9   19 2
  16   10   12 1
  17   10   23 1
  18   11   12 ar
  19   11   16 ar
  20   11   24 1
  21   12   13 ar
  22   13   14 ar
  23   13   25 1
  24   14   15 ar
  25   14   26 1
  26   15   16 ar
  27   15   18 1
  28   16   27 1
  29   20   28 1
  30   20   29 1
  31   20   30 1

#	End of record

