#	Name: ASD02508464
#	Creating user name:	WinNT
#	Creation time:	15. 06. 2019 20:24

#	Modifying user name:	WinNT
#	Modification time:	15. 06. 2019 20:24

#	Program:	/corina/corina34_cracker 3.40 0067  02.08.2006

@<TRIPOS>MOLECULE
ASD02508464
  33   35    0    0    0
SMALL
NO_CHARGES


@<TRIPOS>ATOM
   1 C1            -0.0279     1.3908     0.0221 C.2     
   2 C2             0.0176    -0.0074    -0.1555 C.2     
   3 C3             1.3124    -0.3790    -0.1168 C.2     
   4 N4             2.0721     0.7409     0.0787 N.pl3   
   5 C5             1.2407     1.8231     0.1628 C.2     
   6 C6             3.4621     0.7737     0.1767 C.ar    
   7 N7             4.0632     0.0193     1.0829 N.ar    
   8 N8             4.1485     1.5542    -0.6422 N.ar    
   9 C9             5.4690     1.6097    -0.5773 C.ar    
  10 C10            6.1322     0.8379     0.3622 C.ar    
  11 C11            5.3816     0.0264     1.2022 C.ar    
  12 S12            1.9210    -2.0237    -0.2876 S.o2    
  13 N13            1.9475    -2.3709    -1.9066 N.am    
  14 C14            2.8012    -1.6645    -2.7592 C.ar    
  15 C15            3.5520    -2.3433    -3.7098 C.ar    
  16 C16            4.3952    -1.6438    -4.5516 C.ar    
  17 C17            4.4923    -0.2670    -4.4482 C.ar    
  18 C18            3.7444     0.4131    -3.5000 C.ar    
  19 C19            2.8951    -0.2823    -2.6603 C.ar    
  20 O20            3.2761    -1.9964     0.1391 O.2     
  21 O21            0.9414    -2.8760     0.2896 O.2     
  22 Cl22           6.1614    -0.9615     2.3979 Cl      
  23 Cl23           3.8690     2.1399    -3.3719 Cl      
  24 F24            5.3175     0.4149    -5.2724 F       
  25 H25           -0.9169     2.0039     0.0377 H       
  26 H26           -0.8304    -0.6611    -0.2964 H       
  27 H27            1.5476     2.8473     0.3151 H       
  28 H28            6.0229     2.2487    -1.2491 H       
  29 H29            7.2093     0.8635     0.4368 H       
  30 H30            1.3707    -3.0644    -2.2634 H       
  31 H31            3.4772    -3.4176    -3.7909 H       
  32 H32            4.9794    -2.1718    -5.2907 H       
  33 H33            2.3121     0.2475    -1.9216 H       
@<TRIPOS>BOND
   1    1    2 1
   2    1    5 2
   3    1   25 1
   4    2    3 2
   5    2   26 1
   6    3    4 1
   7    3   12 1
   8    4    5 1
   9    4    6 1
  10    5   27 1
  11    6    7 ar
  12    6    8 ar
  13    7   11 ar
  14    8    9 ar
  15    9   10 ar
  16    9   28 1
  17   10   11 ar
  18   10   29 1
  19   11   22 1
  20   12   13 am
  21   12   20 2
  22   12   21 2
  23   13   14 1
  24   13   30 1
  25   14   15 ar
  26   14   19 ar
  27   15   16 ar
  28   15   31 1
  29   16   17 ar
  30   16   32 1
  31   17   18 ar
  32   17   24 1
  33   18   19 ar
  34   18   23 1
  35   19   33 1

#	End of record

