#	Name: ASD01230069
#	Creating user name:	WinNT
#	Creation time:	15. 06. 2019 19:11

#	Modifying user name:	WinNT
#	Modification time:	15. 06. 2019 19:11

#	Program:	/corina/corina34_cracker 3.40 0067  02.08.2006

@<TRIPOS>MOLECULE
ASD01230069
  46   49    0    0    0
SMALL
NO_CHARGES


@<TRIPOS>ATOM
   1 C1            -0.0167     1.3791     0.0096 C.ar    
   2 C2             0.0021    -0.0041     0.0020 C.ar    
   3 C3             1.2063    -0.6846    -0.0127 C.ar    
   4 C4             2.3966     0.0138    -0.0199 C.ar    
   5 C5             2.3837     1.4075    -0.0128 C.ar    
   6 C6             1.1674     2.0879     0.0021 C.ar    
   7 C7             3.6596     2.1636    -0.0200 C.ar    
   8 N8             4.8249     1.5220    -0.0333 N.ar    
   9 C9             5.9652     2.1950    -0.0402 C.ar    
  10 N10            5.9920     3.5207    -0.0342 N.ar    
  11 C11            4.8721     4.2241    -0.0210 C.ar    
  12 C12            3.6562     3.5616    -0.0188 C.ar    
  13 C13            7.2467     1.4461    -0.0545 C.ar    
  14 C14            8.4683     2.1188    -0.0621 C.ar    
  15 C15            7.2602     0.0474    -0.0548 C.ar    
  16 C16            8.4713    -0.6152    -0.0679 C.ar    
  17 N17            9.6092     0.0496    -0.0795 N.ar    
  18 C18            9.6461     1.3759    -0.0750 C.ar    
  19 C19           10.9542     2.0739    -0.0886 C.ar    
  20 C20           11.0154     3.4608     0.0204 C.ar    
  21 N21           12.1753     4.0856     0.0088 N.ar    
  22 C22           13.3201     3.4284    -0.1054 C.ar    
  23 C23           13.3388     2.0409    -0.2188 C.ar    
  24 C24           12.1450     1.3474    -0.2055 C.ar    
  25 N25           14.5166     4.1326    -0.1126 N.pl3   
  26 C26           -1.2943    -0.7724     0.0103 C.3     
  27 F27           -1.7081    -1.0031    -1.3060 F       
  28 F28           -1.1068    -1.9963     0.6615 F       
  29 F29           -2.2715    -0.0311     0.6832 F       
  30 C30            4.9188     5.7304    -0.0138 C.3     
  31 F31            6.2456     6.1564    -0.1381 F       
  32 F32            4.1678     6.2253    -1.0854 F       
  33 F33            4.3864     6.2077     1.1886 F       
  34 H34           -0.9598     1.9053     0.0170 H       
  35 H35            1.2150    -1.7646    -0.0182 H       
  36 H36            3.3362    -0.5186    -0.0307 H       
  37 H37            1.1516     3.1677     0.0081 H       
  38 H38            2.7270     4.1119    -0.0081 H       
  39 H39            8.5003     3.1983    -0.0584 H       
  40 H40            6.3339    -0.5078    -0.0446 H       
  41 H41            8.4865    -1.6951    -0.0682 H       
  42 H42           10.1026     4.0302     0.1152 H       
  43 H43           14.2763     1.5130    -0.3119 H       
  44 H44           12.1299     0.2709    -0.2918 H       
  45 H45           14.5108     5.0995    -0.0343 H       
  46 H46           15.3583     3.6578    -0.1959 H       
@<TRIPOS>BOND
   1    1    2 ar
   2    1    6 ar
   3    1   34 1
   4    2   26 1
   5    2    3 ar
   6    3    4 ar
   7    3   35 1
   8    4    5 ar
   9    4   36 1
  10    5    6 ar
  11    5    7 1
  12    6   37 1
  13    7    8 ar
  14    7   12 ar
  15    8    9 ar
  16    9   10 ar
  17    9   13 1
  18   10   11 ar
  19   11   30 1
  20   11   12 ar
  21   12   38 1
  22   13   14 ar
  23   13   15 ar
  24   14   18 ar
  25   14   39 1
  26   15   16 ar
  27   15   40 1
  28   16   17 ar
  29   16   41 1
  30   17   18 ar
  31   18   19 1
  32   19   20 ar
  33   19   24 ar
  34   20   21 ar
  35   20   42 1
  36   21   22 ar
  37   22   23 ar
  38   22   25 1
  39   23   24 ar
  40   23   43 1
  41   24   44 1
  42   25   45 1
  43   25   46 1
  44   26   27 1
  45   26   28 1
  46   26   29 1
  47   30   31 1
  48   30   32 1
  49   30   33 1

#	End of record

