#	Name: ASD01870273
#	Creating user name:	WinNT
#	Creation time:	15. 06. 2019 19:38

#	Modifying user name:	WinNT
#	Modification time:	15. 06. 2019 19:38

#	Program:	/corina/corina34_cracker 3.40 0067  02.08.2006

@<TRIPOS>MOLECULE
ASD01870273
  47   50    0    0    0
SMALL
NO_CHARGES


@<TRIPOS>ATOM
   1 C1             0.1091     1.3265     0.0101 C.ar    
   2 C2             0.0894    -0.0707    -0.0041 C.ar    
   3 C3             1.3028     1.9905    -0.0044 C.ar    
   4 C4             2.5013     1.2915    -0.0336 C.ar    
   5 C5             2.5060    -0.0869    -0.0485 C.ar    
   6 C6             1.3026    -0.7789    -0.0332 C.ar    
   7 N7             0.9627    -2.1169    -0.0411 N.pl3   
   8 C8            -0.3955    -2.1895    -0.0162 C.2     
   9 N9            -0.9069    -0.9933     0.0042 N.2     
  10 C10            1.8923    -3.2488    -0.0715 C.3     
  11 C11           -1.1918    -3.4689    -0.0154 C.3     
  12 N12           -1.4244    -3.9000     1.3696 N.3     
  13 C13           -2.3916    -5.0052     1.4218 C.3     
  14 C14           -1.8692    -2.7748     2.2037 C.3     
  15 C15           -2.0234    -3.2464     3.6516 C.3     
  16 N16           -2.9906    -4.3515     3.7038 N.3     
  17 C17           -2.5458    -5.4767     2.8696 C.3     
  18 C18           -3.2107    -4.7596     5.0149 C.ar    
  19 N19           -2.2134    -5.2711     5.7190 N.ar    
  20 C20           -4.4770    -4.6214     5.5773 C.ar    
  21 C21           -4.6812    -5.0313     6.8831 C.ar    
  22 C22           -3.6091    -5.5674     7.5847 C.ar    
  23 C23           -2.3797    -5.6701     6.9661 C.ar    
  24 Cl24          -5.7812    -3.9436     4.6534 Cl      
  25 F25           -4.1616    -7.3743     9.0211 F       
  26 F26           -2.5790    -5.8736     9.7010 F       
  27 C27           -3.7852    -6.0270     9.0090 C.3     
  28 F28           -4.7783    -5.2597     9.6273 F       
  29 H29           -0.8179     1.8804     0.0280 H       
  30 H30            1.3139     3.0704     0.0066 H       
  31 H31            3.4367     1.8312    -0.0451 H       
  32 H32            3.4416    -0.6260    -0.0716 H       
  33 H33            2.1425    -3.5409     0.9483 H       
  34 H34            1.4253    -4.0887    -0.5859 H       
  35 H35            2.8006    -2.9588    -0.5997 H       
  36 H36           -2.1489    -3.3015    -0.5094 H       
  37 H37           -0.6381    -4.2419    -0.5484 H       
  38 H38           -3.3558    -4.6626     1.0463 H       
  39 H39           -2.0339    -5.8308     0.8066 H       
  40 H40           -1.1307    -1.9745     2.1586 H       
  41 H41           -2.8275    -2.4069     1.8371 H       
  42 H42           -1.0591    -3.5889     4.0271 H       
  43 H43           -2.3811    -2.4207     4.2668 H       
  44 H44           -3.2843    -6.2771     2.9148 H       
  45 H45           -1.5875    -5.8446     3.2363 H       
  46 H46           -5.6522    -4.9363     7.3463 H       
  47 H47           -1.5436    -6.0863     7.5084 H       
@<TRIPOS>BOND
   1    1    2 ar
   2    1    3 ar
   3    1   29 1
   4    2    6 ar
   5    2    9 1
   6    3    4 ar
   7    3   30 1
   8    4    5 ar
   9    4   31 1
  10    5    6 ar
  11    5   32 1
  12    6    7 1
  13    7    8 1
  14    7   10 1
  15    8    9 2
  16    8   11 1
  17   10   33 1
  18   10   34 1
  19   10   35 1
  20   11   12 1
  21   11   36 1
  22   11   37 1
  23   12   13 1
  24   12   14 1
  25   13   17 1
  26   13   38 1
  27   13   39 1
  28   14   15 1
  29   14   40 1
  30   14   41 1
  31   15   16 1
  32   15   42 1
  33   15   43 1
  34   16   17 1
  35   16   18 1
  36   17   44 1
  37   17   45 1
  38   18   19 ar
  39   18   20 ar
  40   19   23 ar
  41   20   21 ar
  42   20   24 1
  43   21   22 ar
  44   21   46 1
  45   22   23 ar
  46   22   27 1
  47   23   47 1
  48   25   27 1
  49   26   27 1
  50   27   28 1

#	End of record

