#	Name: ASD01410040
#	Creating user name:	WinNT
#	Creation time:	15. 06. 2019 19:16

#	Modifying user name:	WinNT
#	Modification time:	15. 06. 2019 19:16

#	Program:	/corina/corina34_cracker 3.40 0067  02.08.2006

@<TRIPOS>MOLECULE
ASD01410040
  38   39    0    0    0
SMALL
NO_CHARGES


@<TRIPOS>ATOM
   1 C1            -0.0265     1.3998    -0.0670 C.ar    
   2 C2            -0.0037     0.0236    -0.0692 C.ar    
   3 C3            -1.2065    -0.6948    -0.0486 C.ar    
   4 C4            -2.4288    -0.0020    -0.0257 C.ar    
   5 C5            -2.4329     1.3835    -0.0238 C.ar    
   6 C6            -1.2382     2.0809    -0.0386 C.ar    
   7 O7            -3.5994    -0.6865    -0.0061 O.3     
   8 C8            -4.8019     0.0852     0.0166 C.3     
   9 C9            -5.9918    -0.8394     0.0362 C.2     
  10 N10           -7.2398    -0.3312     0.0592 N.am    
  11 C11           -8.3394    -1.1804    -0.0359 C.ar    
  12 C12           -8.2737    -2.3210    -0.8242 C.ar    
  13 C13           -9.3650    -3.1616    -0.9171 C.ar    
  14 C14          -10.5317    -2.8753    -0.2272 C.ar    
  15 C15          -10.6157    -1.7474     0.5604 C.ar    
  16 C16           -9.5177    -0.8904     0.6695 C.ar    
  17 C17           -9.6004     0.3172     1.5104 C.2     
  18 O18          -10.7683     0.6549     2.0916 O.3     
  19 O19           -8.6153     1.0083     1.6796 O.2     
  20 O20           -5.8263    -2.0408     0.0313 O.2     
  21 C21           -1.1899    -2.1610    -0.0513 C.2     
  22 Cl22           1.4643     2.2889    -0.0926 Cl      
  23 F23           -1.2493     3.4319    -0.0366 F       
  24 C24            0.1234    -2.8996    -0.0764 C.3     
  25 O25           -2.2334    -2.7795    -0.0334 O.2     
  26 H26            0.9398    -0.5017    -0.0873 H       
  27 H27           -3.3702     1.9198    -0.0062 H       
  28 H28           -4.8144     0.7123     0.9080 H       
  29 H29           -4.8460     0.7153    -0.8717 H       
  30 H30           -7.3722     0.6262     0.1421 H       
  31 H31           -7.3680    -2.5510    -1.3657 H       
  32 H32           -9.3088    -4.0479    -1.5318 H       
  33 H33          -11.3799    -3.5390    -0.3073 H       
  34 H34          -11.5277    -1.5286     1.0959 H       
  35 H35          -10.7734     1.4554     2.6340 H       
  36 H36            0.7080    -2.6313     0.8035 H       
  37 H37           -0.0635    -3.9735    -0.0748 H       
  38 H38            0.6757    -2.6283    -0.9761 H       
@<TRIPOS>BOND
   1    1    2 ar
   2    1   22 1
   3    1    6 ar
   4    2    3 ar
   5    2   26 1
   6    3    4 ar
   7    3   21 1
   8    4    5 ar
   9    4    7 1
  10    5    6 ar
  11    5   27 1
  12    6   23 1
  13    7    8 1
  14    8    9 1
  15    8   28 1
  16    8   29 1
  17    9   10 am
  18    9   20 2
  19   10   11 1
  20   10   30 1
  21   11   12 ar
  22   11   16 ar
  23   12   13 ar
  24   12   31 1
  25   13   14 ar
  26   13   32 1
  27   14   15 ar
  28   14   33 1
  29   15   16 ar
  30   15   34 1
  31   16   17 1
  32   17   18 1
  33   17   19 2
  34   18   35 1
  35   21   24 1
  36   21   25 2
  37   24   36 1
  38   24   37 1
  39   24   38 1

#	End of record

