#	Name: ASD00170504
#	Creating user name:	WinNT
#	Creation time:	15. 06. 2019 18:32

#	Modifying user name:	WinNT
#	Modification time:	15. 06. 2019 18:32

#	Program:	/corina/corina34_cracker 3.40 0067  02.08.2006

@<TRIPOS>MOLECULE
ASD00170504
  55   57    0    0    0
SMALL
NO_CHARGES


@<TRIPOS>ATOM
   1 C1             0.2364    -0.1320     1.1887 C.3     
   2 O2            -0.3835    -0.0148    -0.0935 O.3     
   3 C3             0.2519    -0.6015    -1.1420 C.ar    
   4 C4             1.4452    -1.2807    -0.9361 C.ar    
   5 C5             2.0930    -1.8773    -1.9970 C.ar    
   6 C6             1.5473    -1.7977    -3.2796 C.ar    
   7 C7             0.3472    -1.1138    -3.4822 C.ar    
   8 C8            -0.2970    -0.5248    -2.4149 C.ar    
   9 C9             2.2385    -2.4354    -4.4198 C.2     
  10 S10            2.6054    -1.6346    -5.9371 S.3     
  11 C11            3.3439    -3.0274    -6.5839 C.2     
  12 N12            3.8984    -3.1060    -7.8434 N.pl3   
  13 C13            3.3121    -4.0643    -5.6772 C.2     
  14 C14            3.8699    -5.3905    -5.9439 C.2     
  15 O15            3.2120    -6.2172    -6.5492 O.2     
  16 C16            5.2329    -5.7268    -5.4782 C.ar    
  17 C17            5.9460    -4.8245    -4.6873 C.ar    
  18 C18            7.2166    -5.1446    -4.2559 C.ar    
  19 C19            7.7844    -6.3570    -4.6055 C.ar    
  20 C20            9.1729    -6.6999    -4.1306 C.3     
  21 C21            7.0827    -7.2561    -5.3889 C.ar    
  22 C22            5.8094    -6.9504    -5.8229 C.ar    
  23 C23            2.6750    -3.7007    -4.4333 C.2     
  24 C24            2.5145    -4.6484    -3.2726 C.3     
  25 C25            1.1777    -5.3826    -3.3947 C.3     
  26 C26            1.1242    -6.1258    -4.7310 C.3     
  27 C27            1.0400    -6.3855    -2.2475 C.3     
  28 C28            0.0321    -4.3706    -3.3277 C.3     
  29 H29            0.3270    -1.1854     1.4535 H       
  30 H30            1.2273     0.3210     1.1560 H       
  31 H31           -0.3723     0.3791     1.9346 H       
  32 H32            1.8668    -1.3415     0.0563 H       
  33 H33            3.0213    -2.4051    -1.8360 H       
  34 H34           -0.0780    -1.0496    -4.4729 H       
  35 H35           -1.2277     0.0007    -2.5701 H       
  36 H36            3.8191    -2.3579    -8.4558 H       
  37 H37            4.3681    -3.9093    -8.1174 H       
  38 H38            5.5041    -3.8777    -4.4140 H       
  39 H39            7.7696    -4.4471    -3.6441 H       
  40 H40            9.1123    -7.2117    -3.1701 H       
  41 H41            9.6557    -7.3509    -4.8594 H       
  42 H42            9.7549    -5.7851    -4.0188 H       
  43 H43            7.5314    -8.2009    -5.6581 H       
  44 H44            5.2612    -7.6548    -6.4310 H       
  45 H45            3.3289    -5.3729    -3.2799 H       
  46 H46            2.5365    -4.0865    -2.3390 H       
  47 H47            1.9403    -6.8467    -4.7788 H       
  48 H48            0.1718    -6.6488    -4.8180 H       
  49 H49            1.2223    -5.4113    -5.5483 H       
  50 H50            1.0781    -5.8560    -1.2955 H       
  51 H51            0.0876    -6.9085    -2.3345 H       
  52 H52            1.8561    -7.1064    -2.2952 H       
  53 H53            0.0672    -3.7235    -4.2042 H       
  54 H54           -0.9200    -4.9007    -3.3053 H       
  55 H55            0.1331    -3.7667    -2.4259 H       
@<TRIPOS>BOND
   1    1    2 1
   2    1   29 1
   3    1   30 1
   4    1   31 1
   5    2    3 1
   6    3    8 ar
   7    3    4 ar
   8    4    5 ar
   9    4   32 1
  10    5    6 ar
  11    5   33 1
  12    6    7 ar
  13    6    9 1
  14    7    8 ar
  15    7   34 1
  16    8   35 1
  17    9   23 2
  18    9   10 1
  19   10   11 1
  20   11   12 1
  21   11   13 2
  22   12   36 1
  23   12   37 1
  24   13   14 1
  25   13   23 1
  26   14   15 2
  27   14   16 1
  28   16   22 ar
  29   16   17 ar
  30   17   18 ar
  31   17   38 1
  32   18   19 ar
  33   18   39 1
  34   19   20 1
  35   19   21 ar
  36   20   40 1
  37   20   41 1
  38   20   42 1
  39   21   22 ar
  40   21   43 1
  41   22   44 1
  42   23   24 1
  43   24   25 1
  44   24   45 1
  45   24   46 1
  46   25   26 1
  47   25   27 1
  48   25   28 1
  49   26   47 1
  50   26   48 1
  51   26   49 1
  52   27   50 1
  53   27   51 1
  54   27   52 1
  55   28   53 1
  56   28   54 1
  57   28   55 1

#	End of record

