#	Name: ASD02030282
#	Creating user name:	WinNT
#	Creation time:	15. 06. 2019 20:15

#	Modifying user name:	WinNT
#	Modification time:	15. 06. 2019 20:15

#	Program:	/corina/corina34_cracker 3.40 0067  02.08.2006

@<TRIPOS>MOLECULE
ASD02030282
  46   49    0    0    0
SMALL
NO_CHARGES


@<TRIPOS>ATOM
   1 N1            -1.1747     0.8176    -2.0985 N.am    
   2 C2            -1.4238    -0.6070    -1.8371 C.3     
   3 C3            -1.6924    -0.7905    -0.3383 C.3     
   4 N4            -2.6998     0.1935     0.0822 N.am    
   5 C5            -2.4507     1.6181    -0.1792 C.3     
   6 C6            -2.1795     1.8021    -1.6730 C.3     
   7 C7            -0.0425     1.2146    -2.7125 C.2     
   8 C8             1.0221     0.2321    -3.0073 C.2     
   9 N9             2.2172     0.5060    -3.4842 N.2     
  10 N10            0.9415    -1.0994    -2.8295 N.2     
  11 C11            2.0853    -1.6119    -3.2057 C.2     
  12 N12            2.8733    -0.5956    -3.6127 N.pl3   
  13 C13            4.1838    -0.7171    -4.0940 C.ar    
  14 O14            0.1033     2.3806    -3.0240 O.2     
  15 C15           -3.8319    -0.2035     0.6963 C.2     
  16 C16           -4.1416    -1.6305     0.8102 C.2     
  17 O17           -4.5971     0.6239     1.1561 O.2     
  18 C18            4.8896     0.4133    -4.4824 C.ar    
  19 C19            6.1823     0.2900    -4.9567 C.ar    
  20 C20            6.7718    -0.9589    -5.0447 C.ar    
  21 C21            6.0701    -2.0862    -4.6588 C.ar    
  22 C22            4.7809    -1.9682    -4.1779 C.ar    
  23 C23           -1.6555     3.2165    -1.9294 C.3     
  24 Cl24           7.0664     1.7027    -5.4429 Cl      
  25 C25           -5.3285    -2.2142     0.4652 C.2     
  26 S26           -3.0434    -2.8679     1.4055 S.3     
  27 C27           -4.2151    -4.0861     1.1731 C.2     
  28 C28           -5.3481    -3.5720     0.6751 C.2     
  29 Cl29          -3.9702    -5.7676     1.5282 Cl      
  30 H30           -2.2920    -0.9373    -2.4074 H       
  31 H31           -0.5496    -1.1903    -2.1262 H       
  32 H32           -2.0658    -1.7979    -0.1542 H       
  33 H33           -0.7702    -0.6317     0.2208 H       
  34 H34           -3.3249     2.2014     0.1099 H       
  35 H35           -1.5825     1.9484     0.3911 H       
  36 H36           -3.1003     1.6431    -2.2343 H       
  37 H37            2.3514    -2.6585    -3.1900 H       
  38 H38            4.4293     1.3879    -4.4143 H       
  39 H39            7.7816    -1.0533    -5.4159 H       
  40 H40            6.5325    -3.0597    -4.7292 H       
  41 H41            4.2339    -2.8493    -3.8764 H       
  42 H42           -0.6117     3.2786    -1.6216 H       
  43 H43           -1.7353     3.4465    -2.9918 H       
  44 H44           -2.2462     3.9320    -1.3573 H       
  45 H45           -6.1677    -1.6628     0.0676 H       
  46 H46           -6.2135    -4.1799     0.4563 H       
@<TRIPOS>BOND
   1    1    2 1
   2    1    7 am
   3    1    6 1
   4    2    3 1
   5    2   30 1
   6    2   31 1
   7    3    4 1
   8    3   32 1
   9    3   33 1
  10    4    5 1
  11    4   15 am
  12    5    6 1
  13    5   34 1
  14    5   35 1
  15    6   23 1
  16    6   36 1
  17    7    8 1
  18    7   14 2
  19    8    9 2
  20    8   10 1
  21    9   12 1
  22   10   11 2
  23   11   12 1
  24   11   37 1
  25   12   13 1
  26   13   18 ar
  27   13   22 ar
  28   15   16 1
  29   15   17 2
  30   16   26 1
  31   16   25 2
  32   18   19 ar
  33   18   38 1
  34   19   20 ar
  35   19   24 1
  36   20   21 ar
  37   20   39 1
  38   21   22 ar
  39   21   40 1
  40   22   41 1
  41   23   42 1
  42   23   43 1
  43   23   44 1
  44   25   28 1
  45   25   45 1
  46   26   27 1
  47   27   28 2
  48   27   29 1
  49   28   46 1

#	End of record

