#	Name: ASD00431304
#	Creating user name:	WinNT
#	Creation time:	15. 06. 2019 18:35

#	Modifying user name:	WinNT
#	Modification time:	15. 06. 2019 18:35

#	Program:	/corina/corina34_cracker 3.40 0067  02.08.2006

@<TRIPOS>MOLECULE
ASD00431304
  33   34    0    0    0
SMALL
NO_CHARGES


@<TRIPOS>ATOM
   1 S1            -0.1727     1.7180    -0.7341 S.3     
   2 C2            -0.1502     0.0099    -0.7971 C.2     
   3 N3             1.0229    -0.4134    -1.1593 N.2     
   4 C4             1.9394     0.4945    -1.4013 C.2     
   5 C5             1.5161     1.7702    -1.2336 C.2     
   6 C6             2.3200     2.9794    -1.4330 C.2     
   7 O7            -1.2053    -0.7881    -0.5100 O.3     
   8 C8            -1.0032    -2.1328    -0.4951 C.ar    
   9 C9            -2.0839    -2.9960    -0.3723 C.ar    
  10 C10           -1.8778    -4.3624    -0.3572 C.ar    
  11 C11           -0.5916    -4.8709    -0.4646 C.ar    
  12 C12            0.4874    -4.0083    -0.5872 C.ar    
  13 C13            0.2815    -2.6423    -0.6081 C.ar    
  14 O14           -0.3888    -6.2153    -0.4493 O.3     
  15 C15           -1.5321    -7.0414    -0.2204 C.3     
  16 C16           -2.2035    -7.3647    -1.5567 C.3     
  17 C17           -1.0947    -8.3410     0.4582 C.3     
  18 Cl18          -3.6931    -2.3590    -0.2373 Cl      
  19 N19            1.7922     4.1491    -1.2380 N.2     
  20 O20            2.5689     5.3174    -1.4307 O.3     
  21 H21            2.9448     0.2458    -1.7075 H       
  22 H22            3.3515     2.8972    -1.7422 H       
  23 H23           -2.7180    -5.0342    -0.2614 H       
  24 H24            1.4886    -4.4046    -0.6705 H       
  25 H25            1.1216    -1.9711    -0.7084 H       
  26 H26           -2.2376    -6.5152     0.4228 H       
  27 H27           -2.5151    -6.4388    -2.0401 H       
  28 H28           -1.4981    -7.8908    -2.1998 H       
  29 H29           -3.0756    -7.9947    -1.3820 H       
  30 H30           -0.6164    -8.1107     1.4102 H       
  31 H31           -1.9668    -8.9711     0.6328 H       
  32 H32           -0.3893    -8.8671    -0.1850 H       
  33 H33            2.0900     6.1403    -1.2616 H       
@<TRIPOS>BOND
   1    1    2 1
   2    1    5 1
   3    2    3 2
   4    2    7 1
   5    3    4 1
   6    4    5 2
   7    4   21 1
   8    5    6 1
   9    6   19 2
  10    6   22 1
  11    7    8 1
  12    8    9 ar
  13    8   13 ar
  14    9   10 ar
  15    9   18 1
  16   10   11 ar
  17   10   23 1
  18   11   12 ar
  19   11   14 1
  20   12   13 ar
  21   12   24 1
  22   13   25 1
  23   14   15 1
  24   15   16 1
  25   15   17 1
  26   15   26 1
  27   16   27 1
  28   16   28 1
  29   16   29 1
  30   17   30 1
  31   17   31 1
  32   17   32 1
  33   19   20 1
  34   20   33 1

#	End of record

