#	Name: ASD01940236
#	Creating user name:	WinNT
#	Creation time:	15. 06. 2019 20:12

#	Modifying user name:	WinNT
#	Modification time:	15. 06. 2019 20:12

#	Program:	/corina/corina34_cracker 3.40 0067  02.08.2006

@<TRIPOS>MOLECULE
ASD01940236
  32   33    0    0    0
SMALL
NO_CHARGES


@<TRIPOS>ATOM
   1 F1             1.9035     1.5951     2.2857 F       
   2 C2             1.0649     2.1489     1.3828 C.ar    
   3 C3             1.3890     2.1336     0.0327 C.ar    
   4 C4             0.5203     2.7058    -0.8952 C.ar    
   5 C5            -0.6632     3.2876    -0.4661 C.ar    
   6 C6            -0.9805     3.3003     0.8797 C.ar    
   7 C7            -0.1221     2.7276     1.8026 C.ar    
   8 N8             2.5866     1.5448    -0.3959 N.pl3   
   9 N9             0.8425     2.6936    -2.2589 N.am    
  10 C10            2.6331     0.1742    -0.6697 C.ar    
  11 C11            1.4780    -0.5913    -0.5871 C.ar    
  12 C12            1.5269    -1.9454    -0.8582 C.ar    
  13 C13            2.7248    -2.5394    -1.2112 C.ar    
  14 C14            3.8790    -1.7805    -1.2949 C.ar    
  15 C15            3.8362    -0.4243    -1.0312 C.ar    
  16 F16            4.9629     0.3168    -1.1128 F       
  17 F17           -0.4400     2.7374     3.1157 F       
  18 S18            0.4260     3.9766    -3.2196 S.o2    
  19 O19            0.9907     3.6642    -4.4856 O.2     
  20 O20           -0.9802     4.0963    -3.0541 O.2     
  21 I21            2.7925    -4.5931    -1.6196 I       
  22 C22            1.2777     5.3947    -2.4752 C.3     
  23 F23            0.9944     6.5488    -3.2135 F       
  24 H24           -1.3374     3.7314    -1.1837 H       
  25 H25           -1.9027     3.7543     1.2112 H       
  26 H26            3.3832     2.0879    -0.5026 H       
  27 H27            1.3095     1.9337    -2.6402 H       
  28 H28            0.5419    -0.1290    -0.3108 H       
  29 H29            0.6282    -2.5409    -0.7939 H       
  30 H30            4.8130    -2.2474    -1.5706 H       
  31 H31            0.9348     5.5267    -1.4489 H       
  32 H32            2.3529     5.2158    -2.4789 H       
@<TRIPOS>BOND
   1    1    2 1
   2    2    3 ar
   3    2    7 ar
   4    3    4 ar
   5    3    8 1
   6    4    5 ar
   7    4    9 1
   8    5    6 ar
   9    5   24 1
  10    6    7 ar
  11    6   25 1
  12    7   17 1
  13    8   10 1
  14    8   26 1
  15    9   18 am
  16    9   27 1
  17   10   11 ar
  18   10   15 ar
  19   11   12 ar
  20   11   28 1
  21   12   13 ar
  22   12   29 1
  23   13   14 ar
  24   13   21 1
  25   14   15 ar
  26   14   30 1
  27   15   16 1
  28   18   19 2
  29   18   20 2
  30   18   22 1
  31   22   23 1
  32   22   31 1
  33   22   32 1

#	End of record

