#	Name: ASD01910022
#	Creating user name:	WinNT
#	Creation time:	15. 06. 2019 19:55

#	Modifying user name:	WinNT
#	Modification time:	15. 06. 2019 19:55

#	Program:	/corina/corina34_cracker 3.40 0067  02.08.2006

@<TRIPOS>MOLECULE
ASD01910022
  32   34    0    0    0
SMALL
NO_CHARGES


@<TRIPOS>ATOM
   1 N1            -0.0169     1.3964     0.0097 N.2     
   2 N2             0.0021    -0.0041     0.0020 N.pl3   
   3 C3             1.2265     1.8295     0.0002 C.2     
   4 C4             2.0821     0.7155    -0.0140 C.2     
   5 C5             1.3054    -0.4064    -0.0126 C.2     
   6 C6             1.7888    -1.8043    -0.0238 C.ar    
   7 C7             1.6515     3.2518     0.0033 C.ar    
   8 N8             3.0940    -2.0487    -0.0366 N.ar    
   9 C9             0.6970     4.2665     0.0179 C.ar    
  10 C10            3.5668    -3.2776    -0.0464 C.ar    
  11 C11            2.7095    -4.3697    -0.0437 C.ar    
  12 C12            1.3337    -4.1556    -0.0304 C.ar    
  13 C13            0.8692    -2.8532    -0.0149 C.ar    
  14 O14            3.2078    -5.6340    -0.0543 O.3     
  15 C15            4.6302    -5.7707    -0.0681 C.3     
  16 C16            1.0977     5.5873     0.0207 C.ar    
  17 C17            2.4440     5.9043     0.0086 C.ar    
  18 C18            3.3958     4.9007    -0.0064 C.ar    
  19 C19            3.0062     3.5766    -0.0026 C.ar    
  20 F20            5.1468    -5.1533    -1.2123 F       
  21 F21            5.1680    -5.1643     1.0721 F       
  22 H22           -0.7745    -0.5853     0.0063 H       
  23 H23            3.1617     0.7422    -0.0245 H       
  24 H24           -0.3545     4.0201     0.0267 H       
  25 H25            4.6347    -3.4380    -0.0571 H       
  26 H26            0.6452    -4.9876    -0.0283 H       
  27 H27           -0.1916    -2.6508    -0.0040 H       
  28 H28            4.8935    -6.8284    -0.0756 H       
  29 H29            0.3586     6.3748     0.0321 H       
  30 H30            2.7532     6.9391     0.0105 H       
  31 H31            4.4457     5.1537    -0.0162 H       
  32 H32            3.7502     2.7938    -0.0139 H       
@<TRIPOS>BOND
   1    1    2 1
   2    1    3 2
   3    2    5 1
   4    2   22 1
   5    3    4 1
   6    3    7 1
   7    4    5 2
   8    4   23 1
   9    5    6 1
  10    6    8 ar
  11    6   13 ar
  12    7    9 ar
  13    7   19 ar
  14    8   10 ar
  15    9   16 ar
  16    9   24 1
  17   10   11 ar
  18   10   25 1
  19   11   12 ar
  20   11   14 1
  21   12   13 ar
  22   12   26 1
  23   13   27 1
  24   14   15 1
  25   15   20 1
  26   15   21 1
  27   15   28 1
  28   16   17 ar
  29   16   29 1
  30   17   18 ar
  31   17   30 1
  32   18   19 ar
  33   18   31 1
  34   19   32 1

#	End of record

