#	Name: ASD01120109
#	Creating user name:	WinNT
#	Creation time:	15. 06. 2019 18:59

#	Modifying user name:	WinNT
#	Modification time:	15. 06. 2019 18:59

#	Program:	/corina/corina34_cracker 3.40 0067  02.08.2006

@<TRIPOS>MOLECULE
ASD01120109
  33   35    0    0    0
SMALL
NO_CHARGES


@<TRIPOS>ATOM
   1 C1            -0.0213     1.3881    -0.0723 C.ar    
   2 C2            -0.0742     0.1554     0.5614 C.ar    
   3 C3            -1.2589    -0.5533     0.5961 C.ar    
   4 C4            -2.3977    -0.0312    -0.0033 C.ar    
   5 C5            -2.3439     1.2033    -0.6371 C.ar    
   6 C6            -1.1596     1.9130    -0.6663 C.ar    
   7 N7            -3.5990    -0.7491     0.0310 N.pl3   
   8 C8            -4.8050    -0.0767     0.1508 C.2     
   9 N9            -5.9795    -0.6237     0.0769 N.2     
  10 C10           -7.0263     0.1788     0.2155 C.2     
  11 C11           -6.7360     1.4755     0.4178 C.2     
  12 S12           -4.9828     1.6523     0.4344 S.3     
  13 C13           -8.4216    -0.3202     0.1513 C.ar    
  14 C14           -8.6710    -1.6797    -0.0613 C.ar    
  15 C15           -9.9755    -2.1395    -0.1199 C.ar    
  16 C16          -11.0312    -1.2527     0.0317 C.ar    
  17 C17          -10.7844     0.0973     0.2428 C.ar    
  18 C18           -9.4875     0.5632     0.3083 C.ar    
  19 O19            1.1459     2.0852    -0.1064 O.3     
  20 O20          -12.3109    -1.7065    -0.0271 O.3     
  21 O21           -7.6357    -2.5470    -0.2105 O.3     
  22 H22            0.8115    -0.2505     1.0275 H       
  23 H23           -1.2998    -1.5134     1.0890 H       
  24 H24           -3.2290     1.6100    -1.1035 H       
  25 H25           -1.1176     2.8730    -1.1592 H       
  26 H26           -3.5873    -1.7172    -0.0290 H       
  27 H27           -7.4536     2.2715     0.5512 H       
  28 H28          -10.1711    -3.1889    -0.2839 H       
  29 H29          -11.6098     0.7838     0.3602 H       
  30 H30           -9.2986     1.6138     0.4726 H       
  31 H31            1.6996     1.8878    -0.8742 H       
  32 H32          -12.6723    -1.9762     0.8284 H       
  33 H33           -7.3261    -2.9363     0.6188 H       
@<TRIPOS>BOND
   1    1    2 ar
   2    1   19 1
   3    1    6 ar
   4    2    3 ar
   5    2   22 1
   6    3    4 ar
   7    3   23 1
   8    4    5 ar
   9    4    7 1
  10    5    6 ar
  11    5   24 1
  12    6   25 1
  13    7    8 1
  14    7   26 1
  15    8    9 2
  16    8   12 1
  17    9   10 1
  18   10   11 2
  19   10   13 1
  20   11   12 1
  21   11   27 1
  22   13   14 ar
  23   13   18 ar
  24   14   15 ar
  25   14   21 1
  26   15   16 ar
  27   15   28 1
  28   16   17 ar
  29   16   20 1
  30   17   18 ar
  31   17   29 1
  32   18   30 1
  33   19   31 1
  34   20   32 1
  35   21   33 1

#	End of record

