#	Name: ASD05940078
#	Creating user name:	WinNT
#	Creation time:	15. 06. 2019 21:04

#	Modifying user name:	WinNT
#	Modification time:	15. 06. 2019 21:04

#	Program:	/corina/corina34_cracker 3.40 0067  02.08.2006

@<TRIPOS>MOLECULE
ASD05940078
  63   66    0    0    0
SMALL
NO_CHARGES


@<TRIPOS>ATOM
   1 N1             0.2069     1.5599     0.6879 N.ar    
   2 C2             0.1233     0.2412     0.6364 C.ar    
   3 N3             1.1810    -0.5236     0.4158 N.ar    
   4 C4             2.3820     0.0188     0.2362 C.ar    
   5 C5             2.5070     1.4069     0.2688 C.ar    
   6 C6             1.3745     2.1785     0.5094 C.ar    
   7 N7             1.4583     3.5633     0.5620 N.pl3   
   8 O8            -1.0845    -0.3466     0.8158 O.3     
   9 C9            -2.1980     0.5176     1.0514 C.3     
  10 C10           -3.4656    -0.3206     1.2286 C.3     
  11 C11           -4.6577     0.6047     1.4809 C.3     
  12 C12           -5.9253    -0.2336     1.6581 C.3     
  13 N13            3.5016    -0.7711     0.0422 N.3     
  14 C14            3.9179    -0.8145    -1.3627 C.3     
  15 C15            3.8786     0.5827    -1.9752 C.3     
  16 C16            4.4760     1.5904    -1.0299 C.2     
  17 N17            3.7613     1.9995     0.0414 N.am    
  18 O18            5.5889     2.0309    -1.2278 O.2     
  19 C19            3.2884    -2.1253     0.5702 C.3     
  20 C20            4.4876    -2.9819     0.2550 C.ar    
  21 C21            5.5911    -2.9589     1.0869 C.ar    
  22 C22            6.6912    -3.7447     0.7978 C.ar    
  23 C23            6.6874    -4.5537    -0.3229 C.ar    
  24 C24            5.5832    -4.5773    -1.1546 C.ar    
  25 C25            4.4816    -3.7950    -0.8632 C.ar    
  26 C26            5.5791    -5.4590    -2.3768 C.3     
  27 N27            5.0372    -6.7788    -2.0267 N.3     
  28 C28            5.0180    -7.6671    -3.1965 C.3     
  29 C29            4.4486    -9.0288    -2.7935 C.3     
  30 C30            4.2360   -10.0617    -3.9020 C.3     
  31 C31            5.3761   -10.2412    -2.8977 C.3     
  32 H32            2.3129     4.0028     0.4304 H       
  33 H33            0.6622     4.0913     0.7304 H       
  34 H34           -2.0197     1.1020     1.9541 H       
  35 H35           -2.3225     1.1895     0.2023 H       
  36 H36           -3.6439    -0.9050     0.3260 H       
  37 H37           -3.3411    -0.9926     2.0778 H       
  38 H38           -4.4794     1.1890     2.3836 H       
  39 H39           -4.7822     1.2766     0.6318 H       
  40 H40           -6.7746     0.4256     1.8379 H       
  41 H41           -6.1036    -0.8179     0.7555 H       
  42 H42           -5.8009    -0.9055     2.5073 H       
  43 H43            4.9332    -1.2062    -1.4251 H       
  44 H44            3.2456    -1.4694    -1.9171 H       
  45 H45            4.4451     0.5832    -2.9065 H       
  46 H46            2.8440     0.8548    -2.1842 H       
  47 H47            4.1043     2.6838     0.6373 H       
  48 H48            3.1504    -2.0766     1.6503 H       
  49 H49            2.4008    -2.5592     0.1097 H       
  50 H50            5.5941    -2.3268     1.9626 H       
  51 H51            7.5538    -3.7262     1.4474 H       
  52 H52            7.5470    -5.1670    -0.5492 H       
  53 H53            3.6191    -3.8135    -1.5128 H       
  54 H54            4.9593    -5.0052    -3.1501 H       
  55 H55            6.5981    -5.5712    -2.7472 H       
  56 H56            5.5561    -7.1927    -1.2668 H       
  57 H57            4.3943    -7.2286    -3.9755 H       
  58 H58            6.0331    -7.7946    -3.5726 H       
  59 H59            3.7293    -9.0139    -1.9747 H       
  60 H60            3.3769   -10.7266    -3.8124 H       
  61 H61            4.5017    -9.7711    -4.9184 H       
  62 H62            6.3919   -10.0687    -3.2533 H       
  63 H63            5.2671   -11.0242    -2.1472 H       
@<TRIPOS>BOND
   1    1    2 ar
   2    1    6 ar
   3    2    3 ar
   4    2    8 1
   5    3    4 ar
   6    4    5 ar
   7    4   13 1
   8    5    6 ar
   9    5   17 1
  10    6    7 1
  11    7   32 1
  12    7   33 1
  13    8    9 1
  14    9   10 1
  15    9   34 1
  16    9   35 1
  17   10   11 1
  18   10   36 1
  19   10   37 1
  20   11   12 1
  21   11   38 1
  22   11   39 1
  23   12   40 1
  24   12   41 1
  25   12   42 1
  26   13   14 1
  27   13   19 1
  28   14   15 1
  29   14   43 1
  30   14   44 1
  31   15   16 1
  32   15   45 1
  33   15   46 1
  34   16   17 am
  35   16   18 2
  36   17   47 1
  37   19   20 1
  38   19   48 1
  39   19   49 1
  40   20   21 ar
  41   20   25 ar
  42   21   22 ar
  43   21   50 1
  44   22   23 ar
  45   22   51 1
  46   23   24 ar
  47   23   52 1
  48   24   25 ar
  49   24   26 1
  50   25   53 1
  51   26   27 1
  52   26   54 1
  53   26   55 1
  54   27   28 1
  55   27   56 1
  56   28   29 1
  57   28   57 1
  58   28   58 1
  59   29   30 1
  60   29   31 1
  61   29   59 1
  62   30   31 1
  63   30   60 1
  64   30   61 1
  65   31   62 1
  66   31   63 1

#	End of record

