#	Name: ASD02030285
#	Creating user name:	WinNT
#	Creation time:	15. 06. 2019 20:15

#	Modifying user name:	WinNT
#	Modification time:	15. 06. 2019 20:15

#	Program:	/corina/corina34_cracker 3.40 0067  02.08.2006

@<TRIPOS>MOLECULE
ASD02030285
  56   60    0    0    0
SMALL
NO_CHARGES


@<TRIPOS>ATOM
   1 N1            -0.2649     1.4811     0.7261 N.am    
   2 C2            -0.3403     0.0142     0.6757 C.3     
   3 C3            -1.4233    -0.4547     1.6552 C.3     
   4 N4            -2.6448     0.3260     1.4138 N.am    
   5 C5            -2.5694     1.7928     1.4642 C.3     
   6 C6            -1.4876     2.2617     0.4902 C.3     
   7 C7             0.9034     2.0993     0.9894 C.2     
   8 C8             2.0946     1.3037     1.3550 C.2     
   9 N9             3.2525     1.7835     1.7551 N.2     
  10 N10            2.1839    -0.0389     1.3427 N.2     
  11 C11            3.3942    -0.3518     1.7299 C.2     
  12 N12            4.0509     0.7985     1.9845 N.pl3   
  13 C13            5.3774     0.9045     2.4241 C.ar    
  14 O14            0.9777     3.3110     0.9263 O.2     
  15 C15           -3.8131    -0.2922     1.1505 C.2     
  16 C16           -5.0481     0.4936     1.0256 C.2     
  17 O17           -3.8450    -1.5011     1.0162 O.2     
  18 C18            5.9372     2.1545     2.6501 C.ar    
  19 C19            7.2461     2.2556     3.0837 C.ar    
  20 C20            7.9973     1.1123     3.2917 C.ar    
  21 C21            7.4415    -0.1338     3.0666 C.ar    
  22 C22            6.1324    -0.2409     2.6398 C.ar    
  23 C23           -1.2017     3.7475     0.7167 C.3     
  24 Cl24           7.9478     3.8180     3.3669 Cl      
  25 C25           -6.0230     0.4359    -0.0790 C.ar    
  26 C26           -5.5218     1.4160     1.9114 C.2     
  27 N27           -6.6879     1.9328     1.4550 N.pl3   
  28 C28           -7.0270     1.3619     0.2456 C.ar    
  29 C29           -8.0996     1.5376    -0.6229 C.ar    
  30 C30           -8.1675     0.8058    -1.7881 C.ar    
  31 C31           -7.1742    -0.1088    -2.1075 C.ar    
  32 C32           -6.1065    -0.3002    -1.2584 C.ar    
  33 C33           -7.4793     2.9514     2.1495 C.3     
  34 H34           -0.5979    -0.3043    -0.3344 H       
  35 H35            0.6213    -0.4115     0.9622 H       
  36 H36           -1.6280    -1.5133     1.4949 H       
  37 H37           -1.0841    -0.2962     2.6789 H       
  38 H38           -3.5310     2.2186     1.1777 H       
  39 H39           -2.3118     2.1114     2.4743 H       
  40 H40           -1.8243     2.1034    -0.5344 H       
  41 H41            3.7937    -1.3502     1.8306 H       
  42 H42            5.3512     3.0468     2.4871 H       
  43 H43            9.0197     1.1932     3.6301 H       
  44 H44            8.0304    -1.0244     3.2291 H       
  45 H45            5.6992    -1.2146     2.4647 H       
  46 H46           -0.7445     3.8843     1.6967 H       
  47 H47           -0.5218     4.1085    -0.0550 H       
  48 H48           -2.1351     4.3084     0.6699 H       
  49 H49           -5.0399     1.6927     2.8374 H       
  50 H50           -8.8783     2.2467    -0.3837 H       
  51 H51           -9.0021     0.9452    -2.4592 H       
  52 H52           -7.2402    -0.6758    -3.0244 H       
  53 H53           -5.3344    -1.0125    -1.5094 H       
  54 H54           -7.1565     3.9424     1.8304 H       
  55 H55           -8.5342     2.8181     1.9094 H       
  56 H56           -7.3362     2.8516     3.2254 H       
@<TRIPOS>BOND
   1    1    2 1
   2    1    7 am
   3    1    6 1
   4    2    3 1
   5    2   34 1
   6    2   35 1
   7    3    4 1
   8    3   36 1
   9    3   37 1
  10    4    5 1
  11    4   15 am
  12    5    6 1
  13    5   38 1
  14    5   39 1
  15    6   23 1
  16    6   40 1
  17    7    8 1
  18    7   14 2
  19    8    9 2
  20    8   10 1
  21    9   12 1
  22   10   11 2
  23   11   12 1
  24   11   41 1
  25   12   13 1
  26   13   18 ar
  27   13   22 ar
  28   15   16 1
  29   15   17 2
  30   16   26 2
  31   16   25 1
  32   18   19 ar
  33   18   42 1
  34   19   20 ar
  35   19   24 1
  36   20   21 ar
  37   20   43 1
  38   21   22 ar
  39   21   44 1
  40   22   45 1
  41   23   46 1
  42   23   47 1
  43   23   48 1
  44   25   28 ar
  45   25   32 ar
  46   26   27 1
  47   26   49 1
  48   27   28 1
  49   27   33 1
  50   28   29 ar
  51   29   30 ar
  52   29   50 1
  53   30   31 ar
  54   30   51 1
  55   31   32 ar
  56   31   52 1
  57   32   53 1
  58   33   54 1
  59   33   55 1
  60   33   56 1

#	End of record

