#	Name: ASD03170005
#	Creating user name:	WinNT
#	Creation time:	15. 06. 2019 20:33

#	Modifying user name:	WinNT
#	Modification time:	15. 06. 2019 20:33

#	Program:	/corina/corina34_cracker 3.40 0067  02.08.2006

@<TRIPOS>MOLECULE
ASD03170005
  50   52    0    0    0
SMALL
NO_CHARGES


@<TRIPOS>ATOM
   1 O1             2.5191    -2.3818     1.9170 O.3     
   2 C2             1.4702    -2.0319     1.1268 C.ar    
   3 C3             0.5172    -1.1382     1.5927 C.ar    
   4 C4            -0.5482    -0.7841     0.7874 C.ar    
   5 C5            -0.6648    -1.3196    -0.4817 C.ar    
   6 C6             0.2837    -2.2112    -0.9484 C.ar    
   7 C7             1.3540    -2.5636    -0.1495 C.ar    
   8 C8             0.1532    -2.7935    -2.3322 C.3     
   9 C9             1.3234    -2.3219    -3.1978 C.3     
  10 C10           -1.1654    -2.3323    -2.9591 C.3     
  11 C11           -1.3208    -2.9753    -4.3392 C.3     
  12 N12           -1.3075    -4.4374    -4.2037 N.3     
  13 C13           -0.0323    -4.9075    -3.6476 C.3     
  14 C14            0.1632    -4.3223    -2.2471 C.3     
  15 C15           -0.9735    -4.7886    -1.3353 C.3     
  16 C16           -1.5927    -5.0879    -5.4896 C.3     
  17 C17           -0.4528    -4.8027    -6.4694 C.3     
  18 C18           -0.7499    -5.4802    -7.8086 C.3     
  19 C19            0.3729    -5.1993    -8.7737 C.2     
  20 C20            1.4761    -5.9513    -8.9376 C.2     
  21 C21            2.2549    -5.3239    -9.9369 C.2     
  22 C22            1.5811    -4.2260   -10.3240 C.2     
  23 O23            0.4392    -4.1587    -9.6202 O.3     
  24 H24            2.3520    -3.1554     2.4726 H       
  25 H25            0.6077    -0.7198     2.5843 H       
  26 H26           -1.2907    -0.0885     1.1498 H       
  27 H27           -1.4983    -1.0416    -1.1097 H       
  28 H28            2.0947    -3.2596    -0.5146 H       
  29 H29            2.2615    -2.6526    -2.7519 H       
  30 H30            1.2282    -2.7436    -4.1984 H       
  31 H31            1.3142    -1.2337    -3.2596 H       
  32 H32           -1.9965    -2.6338    -2.3215 H       
  33 H33           -1.1597    -1.2472    -3.0618 H       
  34 H34           -2.2655    -2.6602    -4.7823 H       
  35 H35           -0.4968    -2.6624    -4.9805 H       
  36 H36           -0.0411    -5.9959    -3.5884 H       
  37 H37            0.7857    -4.5856    -4.2921 H       
  38 H38            1.1172    -4.6594    -1.8417 H       
  39 H39           -0.9250    -5.8713    -1.2190 H       
  40 H40           -0.8747    -4.3135    -0.3593 H       
  41 H41           -1.9307    -4.5133    -1.7782 H       
  42 H42           -1.6830    -6.1638    -5.3403 H       
  43 H43           -2.5264    -4.6977    -5.8949 H       
  44 H44           -0.3626    -3.7267    -6.6186 H       
  45 H45            0.4808    -5.1928    -6.0641 H       
  46 H46           -0.8401    -6.5561    -7.6594 H       
  47 H47           -1.6835    -5.0900    -8.2139 H       
  48 H48            1.7203    -6.8598    -8.4070 H       
  49 H49            3.2081    -5.6613   -10.3164 H       
  50 H50            1.9020    -3.5204   -11.0761 H       
@<TRIPOS>BOND
   1    1    2 1
   2    1   24 1
   3    2    3 ar
   4    2    7 ar
   5    3    4 ar
   6    3   25 1
   7    4    5 ar
   8    4   26 1
   9    5    6 ar
  10    5   27 1
  11    6    7 ar
  12    6    8 1
  13    7   28 1
  14    8    9 1
  15    8   10 1
  16    8   14 1
  17    9   29 1
  18    9   30 1
  19    9   31 1
  20   10   11 1
  21   10   32 1
  22   10   33 1
  23   11   12 1
  24   11   34 1
  25   11   35 1
  26   12   13 1
  27   12   16 1
  28   13   14 1
  29   13   36 1
  30   13   37 1
  31   14   15 1
  32   14   38 1
  33   15   39 1
  34   15   40 1
  35   15   41 1
  36   16   17 1
  37   16   42 1
  38   16   43 1
  39   17   18 1
  40   17   44 1
  41   17   45 1
  42   18   19 1
  43   18   46 1
  44   18   47 1
  45   19   20 2
  46   19   23 1
  47   20   21 1
  48   20   48 1
  49   21   22 2
  50   21   49 1
  51   22   23 1
  52   22   50 1

#	End of record

