#	Name: ASD02408419
#	Creating user name:	WinNT
#	Creation time:	15. 06. 2019 20:21

#	Modifying user name:	WinNT
#	Modification time:	15. 06. 2019 20:21

#	Program:	/corina/corina34_cracker 3.40 0067  02.08.2006

@<TRIPOS>MOLECULE
ASD02408419
  41   44    0    0    0
SMALL
NO_CHARGES


@<TRIPOS>ATOM
   1 N1            -0.0163     1.3529     0.0095 N.am    
   2 C2             0.0021    -0.0041     0.0020 C.2     
   3 N3             1.1020    -0.6986    -0.0122 N.2     
   4 C4             2.3095    -0.1134    -0.0206 C.2     
   5 C5             2.3912     1.2884    -0.0138 C.2     
   6 C6             1.1433     2.0512     0.0022 C.2     
   7 N7             3.5889    -0.5766    -0.0360 N.pl3   
   8 N8             4.4545     0.5245    -0.0388 N.2     
   9 C9             3.7570     1.6275    -0.0258 C.2     
  10 C10           -1.3127    -0.7405     0.0111 C.3     
  11 C11           -1.0528    -2.2483     0.0004 C.3     
  12 C12            3.9744    -1.9244    -0.0464 C.ar    
  13 C13            3.0118    -2.9231    -0.0413 C.ar    
  14 C14            3.3943    -4.2512    -0.0516 C.ar    
  15 C15            4.7351    -4.5880    -0.0670 C.ar    
  16 C16            5.7005    -3.5982    -0.0717 C.ar    
  17 C17            5.3256    -2.2645    -0.0677 C.ar    
  18 O18            1.1473     3.2695     0.0087 O.2     
  19 C19           -2.3811    -3.0131     0.1355 C.3     
  20 C20           -2.5266    -3.8718    -1.1378 C.3     
  21 C21           -1.0736    -4.0503    -1.6437 C.3     
  22 C22           -0.4374    -2.6689    -1.3502 C.3     
  23 O23            6.2735    -1.2901    -0.0728 O.3     
  24 H24           -0.8640     1.8243     0.0160 H       
  25 H25            4.1594     2.6298    -0.0249 H       
  26 H26           -1.8719    -0.4746     0.9081 H       
  27 H27           -1.8896    -0.4650    -0.8717 H       
  28 H28           -0.3824    -2.5171     0.8168 H       
  29 H29            1.9637    -2.6630    -0.0290 H       
  30 H30            2.6439    -5.0279    -0.0473 H       
  31 H31            5.0293    -5.6271    -0.0750 H       
  32 H32            6.7470    -3.8647    -0.0834 H       
  33 H33           -2.3551    -3.6538     1.0170 H       
  34 H34           -3.2109    -2.3102     0.2087 H       
  35 H35           -2.9683    -4.8389    -0.8973 H       
  36 H36           -3.1286    -3.3510    -1.8824 H       
  37 H37           -0.5643    -4.8364    -1.0863 H       
  38 H38           -1.0602    -4.2624    -2.7128 H       
  39 H39           -0.7020    -1.9538    -2.1292 H       
  40 H40            0.6455    -2.7581    -1.2648 H       
  41 H41            6.5420    -1.0071    -0.9577 H       
@<TRIPOS>BOND
   1    1    2 1
   2    1    6 am
   3    1   24 1
   4    2    3 2
   5    2   10 1
   6    3    4 1
   7    4    5 2
   8    4    7 1
   9    5    6 1
  10    5    9 1
  11    6   18 2
  12    7    8 1
  13    7   12 1
  14    8    9 2
  15    9   25 1
  16   10   11 1
  17   10   26 1
  18   10   27 1
  19   11   19 1
  20   11   22 1
  21   11   28 1
  22   12   13 ar
  23   12   17 ar
  24   13   14 ar
  25   13   29 1
  26   14   15 ar
  27   14   30 1
  28   15   16 ar
  29   15   31 1
  30   16   17 ar
  31   16   32 1
  32   17   23 1
  33   19   20 1
  34   19   33 1
  35   19   34 1
  36   20   21 1
  37   20   35 1
  38   20   36 1
  39   21   22 1
  40   21   37 1
  41   21   38 1
  42   22   39 1
  43   22   40 1
  44   23   41 1

#	End of record

