#	Name: ASD03240435
#	Creating user name:	WinNT
#	Creation time:	15. 06. 2019 20:34

#	Modifying user name:	WinNT
#	Modification time:	15. 06. 2019 20:34

#	Program:	/corina/corina34_cracker 3.40 0067  02.08.2006

@<TRIPOS>MOLECULE
ASD03240435
  51   54    0    0    0
SMALL
NO_CHARGES


@<TRIPOS>ATOM
   1 C1            -0.0653     1.4695    -0.0590 C.ar    
   2 C2            -0.3960     0.5089     0.8789 C.ar    
   3 C3             2.5136     0.3911    -1.2826 C.ar    
   4 C4             2.1168     1.7116    -1.1725 C.ar    
   5 C5             1.2788     2.1484     0.0014 C.3     
   6 C6             3.2812    -0.0142    -2.3557 C.ar    
   7 C7             3.6561     0.9092    -3.3290 C.ar    
   8 C8             3.2541     2.2379    -3.2131 C.ar    
   9 C9             2.4866     2.6326    -2.1358 C.ar    
  10 C10            4.4820     0.4789    -4.4854 C.2     
  11 C11           -1.6275    -0.1149     0.8258 C.ar    
  12 C12           -2.5326     0.2232    -0.1697 C.ar    
  13 C13           -2.1984     1.1874    -1.1096 C.ar    
  14 C14           -0.9634     1.8042    -1.0555 C.ar    
  15 O15           -3.7445    -0.3893    -0.2244 O.3     
  16 C16            1.0875     3.6669    -0.0433 C.3     
  17 C17            0.2878     4.1117     1.1834 C.3     
  18 N18            1.0072     3.7267     2.4043 N.3     
  19 C19            1.1612     2.2690     2.4925 C.3     
  20 C20            1.9862     1.7677     1.3049 C.3     
  21 C21            4.9178     1.2738    -5.5050 C.2     
  22 N22            5.6340     0.5016    -6.3467 N.pl3   
  23 N23            5.6450    -0.8038    -5.8406 N.2     
  24 C24            4.9633    -0.8227    -4.7259 C.2     
  25 C25           -4.6258     0.0089    -1.2765 C.3     
  26 C26           -5.9112    -0.7716    -1.1775 C.2     
  27 O27           -6.0575    -1.5853    -0.2964 O.2     
  28 O28           -6.8934    -0.5627    -2.0681 O.3     
  29 H29            0.3091     0.2458     1.6535 H       
  30 H30            2.2262    -0.3230    -0.5251 H       
  31 H31            3.5908    -1.0454    -2.4406 H       
  32 H32            3.5420     2.9578    -3.9649 H       
  33 H33            2.1741     3.6624    -2.0452 H       
  34 H34           -1.8852    -0.8654     1.5584 H       
  35 H35           -2.9013     1.4523    -1.8856 H       
  36 H36           -0.7027     2.5548    -1.7869 H       
  37 H37            2.0613     4.1566    -0.0400 H       
  38 H38            0.5458     3.9390    -0.9491 H       
  39 H39            0.1621     5.1942     1.1620 H       
  40 H40           -0.6910     3.6323     1.1722 H       
  41 H41            1.9026     4.1888     2.4573 H       
  42 H42            1.6699     2.0131     3.4219 H       
  43 H43            0.1783     1.7982     2.4751 H       
  44 H44            2.0866     0.6839     1.3631 H       
  45 H45            2.9744     2.2271     1.3286 H       
  46 H46            4.7241     2.3303    -5.6176 H       
  47 H47            6.0667     0.7989    -7.1624 H       
  48 H48            4.7926    -1.6873    -4.1016 H       
  49 H49           -4.8397     1.0740    -1.1877 H       
  50 H50           -4.1544    -0.1880    -2.2394 H       
  51 H51           -7.6992    -1.0871    -1.9640 H       
@<TRIPOS>BOND
   1    1    2 ar
   2    1    5 1
   3    1   14 ar
   4    2   11 ar
   5    2   29 1
   6    3    4 ar
   7    3    6 ar
   8    3   30 1
   9    4    5 1
  10    4    9 ar
  11    5   16 1
  12    5   20 1
  13    6    7 ar
  14    6   31 1
  15    7    8 ar
  16    7   10 1
  17    8    9 ar
  18    8   32 1
  19    9   33 1
  20   10   21 2
  21   10   24 1
  22   11   12 ar
  23   11   34 1
  24   12   13 ar
  25   12   15 1
  26   13   14 ar
  27   13   35 1
  28   14   36 1
  29   15   25 1
  30   16   17 1
  31   16   37 1
  32   16   38 1
  33   17   18 1
  34   17   39 1
  35   17   40 1
  36   18   19 1
  37   18   41 1
  38   19   20 1
  39   19   42 1
  40   19   43 1
  41   20   44 1
  42   20   45 1
  43   21   22 1
  44   21   46 1
  45   22   23 1
  46   22   47 1
  47   23   24 2
  48   24   48 1
  49   25   26 1
  50   25   49 1
  51   25   50 1
  52   26   27 2
  53   26   28 1
  54   28   51 1

#	End of record

