#	Name: ASD03092643
#	Creating user name:	WinNT
#	Creation time:	15. 06. 2019 20:32

#	Modifying user name:	WinNT
#	Modification time:	15. 06. 2019 20:32

#	Program:	/corina/corina34_cracker 3.40 0067  02.08.2006

@<TRIPOS>MOLECULE
ASD03092643
  53   56    0    0    0
SMALL
NO_CHARGES


@<TRIPOS>ATOM
   1 C1             1.0915     1.6360    -0.8830 C.ar    
   2 C2             1.0108     0.2397    -1.0606 C.ar    
   3 C3             1.7587    -0.6023    -0.2078 C.ar    
   4 C4             2.5444    -0.0012     0.7737 C.ar    
   5 C5             2.5638     1.3813     0.8767 C.ar    
   6 N6             1.8581     2.1437     0.0707 N.ar    
   7 N7            -0.3021     1.1562    -2.5773 N.2     
   8 N8             0.2706     2.1937    -1.8322 N.pl3   
   9 C9             0.1286     0.0077    -2.1372 C.2     
  10 C10            1.7091    -2.0726    -0.3515 C.2     
  11 O11            0.6672    -2.6185    -0.6588 O.2     
  12 N12            2.8189    -2.8080    -0.1419 N.am    
  13 C13            3.6131    -4.9137    -1.0321 C.ar    
  14 C14            2.7546    -4.2038    -0.2023 C.ar    
  15 C15            1.8292    -4.9026     0.5690 C.ar    
  16 C16            1.8043    -6.2846     0.4752 C.ar    
  17 C17            2.6911    -6.9198    -0.3738 C.ar    
  18 N18            3.5560    -6.2290    -1.0909 N.ar    
  19 C19            0.8789    -4.1735     1.4835 C.3     
  20 C20            4.6160    -4.1720    -1.8778 C.3     
  21 C21            0.0453     3.5643    -2.0220 C.ar    
  22 C22           -0.1500     4.0653    -3.3023 C.ar    
  23 C23           -0.3719     5.4152    -3.4886 C.ar    
  24 C24           -0.3993     6.2712    -2.3970 C.ar    
  25 C25           -0.2042     5.7712    -1.1176 C.ar    
  26 C26            0.0116     4.4206    -0.9294 C.ar    
  27 O27           -0.6169     7.6004    -2.5812 O.3     
  28 C28           -0.6322     8.4233    -1.4131 C.3     
  29 F29            0.6025     8.3313    -0.7616 F       
  30 F30           -0.8670     9.7523    -1.7818 F       
  31 F31           -1.6470     7.9920    -0.5521 F       
  32 C32            3.4151     2.0266     1.9398 C.3     
  33 C33           -0.2577    -1.3434    -2.6817 C.3     
  34 H34            3.1323    -0.6064     1.4479 H       
  35 H35            3.6622    -2.3693     0.0509 H       
  36 H36            1.1002    -6.8590     1.0589 H       
  37 H37            2.6758    -7.9970    -0.4507 H       
  38 H38           -0.0803    -4.0440     0.9823 H       
  39 H39            0.7367    -4.7524     2.3961 H       
  40 H40            1.2928    -3.1967     1.7337 H       
  41 H41            5.5709    -4.1277    -1.3541 H       
  42 H42            4.7460    -4.6919    -2.8270 H       
  43 H43            4.2565    -3.1600    -2.0641 H       
  44 H44           -0.1280     3.3992    -4.1521 H       
  45 H45           -0.5238     5.8050    -4.4843 H       
  46 H46           -0.2257     6.4380    -0.2683 H       
  47 H47            0.1590     4.0308     0.0670 H       
  48 H48            4.4106     2.2199     1.5403 H       
  49 H49            2.9589     2.9669     2.2493 H       
  50 H50            3.4914     1.3597     2.7986 H       
  51 H51           -1.0733    -1.7550    -2.0872 H       
  52 H52           -0.5799    -1.2389    -3.7177 H       
  53 H53            0.6008    -2.0133    -2.6340 H       
@<TRIPOS>BOND
   1    1    2 ar
   2    1    6 ar
   3    1    8 1
   4    2    3 ar
   5    2    9 1
   6    3    4 ar
   7    3   10 1
   8    4    5 ar
   9    4   34 1
  10    5    6 ar
  11    5   32 1
  12    7    8 1
  13    7    9 2
  14    8   21 1
  15    9   33 1
  16   10   11 2
  17   10   12 am
  18   12   14 1
  19   12   35 1
  20   13   14 ar
  21   13   18 ar
  22   13   20 1
  23   14   15 ar
  24   15   16 ar
  25   15   19 1
  26   16   17 ar
  27   16   36 1
  28   17   18 ar
  29   17   37 1
  30   19   38 1
  31   19   39 1
  32   19   40 1
  33   20   41 1
  34   20   42 1
  35   20   43 1
  36   21   22 ar
  37   21   26 ar
  38   22   23 ar
  39   22   44 1
  40   23   24 ar
  41   23   45 1
  42   24   25 ar
  43   24   27 1
  44   25   26 ar
  45   25   46 1
  46   26   47 1
  47   27   28 1
  48   28   29 1
  49   28   30 1
  50   28   31 1
  51   32   48 1
  52   32   49 1
  53   32   50 1
  54   33   51 1
  55   33   52 1
  56   33   53 1

#	End of record

