#	Name: ASD01950001
#	Creating user name:	WinNT
#	Creation time:	15. 06. 2019 20:14

#	Modifying user name:	WinNT
#	Modification time:	15. 06. 2019 20:14

#	Program:	/corina/corina34_cracker 3.40 0067  02.08.2006

@<TRIPOS>MOLECULE
ASD01950001
  39   41    0    0    0
SMALL
NO_CHARGES


@<TRIPOS>ATOM
   1 C1             0.3655     0.6872    -1.3397 C.ar    
   2 C2            -0.0032     0.0192    -0.1942 C.ar    
   3 C3             0.8068     0.0599     0.9334 C.ar    
   4 C4             1.9932     0.7719     0.9167 C.ar    
   5 C5             2.3798     1.4519    -0.2325 C.ar    
   6 C6             1.5614     1.4111    -1.3723 C.ar    
   7 F7             0.4342    -0.5989     2.0525 F       
   8 F8             2.7756     0.8066     2.0176 F       
   9 C9             1.9603     2.1272    -2.5964 C.2     
  10 N10            1.2304     1.9964    -3.7218 N.am    
  11 O11            2.9484     2.8363    -2.5914 O.2     
  12 O12            1.6138     2.6847    -4.8984 O.3     
  13 C13            0.7507     2.4546    -6.0138 C.3     
  14 C14            1.7185     2.4455    -8.4442 C.3     
  15 C15            0.4014     3.2226    -8.4900 C.3     
  16 C16            1.2582     3.2434    -7.2226 C.3     
  17 C17            4.7742     1.5189    -0.5455 C.ar    
  18 C18            4.7682     0.1855    -0.9314 C.ar    
  19 C19            5.9579    -0.4530    -1.2255 C.ar    
  20 C20            7.1546     0.2342    -1.1356 C.ar    
  21 C21            7.1657     1.5635    -0.7514 C.ar    
  22 C22            5.9793     2.2085    -0.4561 C.ar    
  23 N23            3.5709     2.1693    -0.2527 N.pl3   
  24 F24            5.9899     3.5065    -0.0814 F       
  25 I25            8.9550    -0.7399    -1.5815 I       
  26 H26           -0.2665     0.6485    -2.2146 H       
  27 H27           -0.9274    -0.5391    -0.1718 H       
  28 H28            0.4423     1.4308    -3.7258 H       
  29 H29            0.7407     1.3910    -6.2521 H       
  30 H30           -0.2592     2.7807    -5.7650 H       
  31 H31            1.6598     1.3586    -8.3867 H       
  32 H32            2.5568     2.8415    -9.0173 H       
  33 H33            0.3731     4.1300    -9.0933 H       
  34 H34           -0.5238     2.6470    -8.4626 H       
  35 H35            1.7936     4.1644    -6.9921 H       
  36 H36            3.8345    -0.3526    -1.0013 H       
  37 H37            5.9531    -1.4904    -1.5257 H       
  38 H38            8.1020     2.0973    -0.6818 H       
  39 H39            3.5673     3.1207    -0.0637 H       
@<TRIPOS>BOND
   1    1    2 ar
   2    1    6 ar
   3    1   26 1
   4    2    3 ar
   5    2   27 1
   6    3    4 ar
   7    3    7 1
   8    4    5 ar
   9    4    8 1
  10    5    6 ar
  11    5   23 1
  12    6    9 1
  13    9   10 am
  14    9   11 2
  15   10   12 1
  16   10   28 1
  17   12   13 1
  18   13   16 1
  19   13   29 1
  20   13   30 1
  21   14   15 1
  22   14   16 1
  23   14   31 1
  24   14   32 1
  25   15   16 1
  26   15   33 1
  27   15   34 1
  28   16   35 1
  29   17   18 ar
  30   17   22 ar
  31   17   23 1
  32   18   19 ar
  33   18   36 1
  34   19   20 ar
  35   19   37 1
  36   20   21 ar
  37   20   25 1
  38   21   22 ar
  39   21   38 1
  40   22   24 1
  41   23   39 1

#	End of record

