#	Name: ASD01411007
#	Creating user name:	WinNT
#	Creation time:	15. 06. 2019 19:19

#	Modifying user name:	WinNT
#	Modification time:	15. 06. 2019 19:19

#	Program:	/corina/corina34_cracker 3.40 0067  02.08.2006

@<TRIPOS>MOLECULE
ASD01411007
  69   74    0    0    0
SMALL
NO_CHARGES


@<TRIPOS>ATOM
   1 C1            -0.0210     1.3471    -0.2584 C.ar    
   2 C2             0.0075     0.0736     0.3415 C.ar    
   3 C3            -1.1800    -0.5628     0.6854 C.ar    
   4 C4            -2.3782     0.0435     0.4432 C.ar    
   5 C5            -2.4257     1.3107    -0.1536 C.ar    
   6 C6            -1.2484     1.9656    -0.5001 C.ar    
   7 N7             1.2654     1.7148    -0.4787 N.2     
   8 C8             2.0694     0.7686    -0.0613 C.2     
   9 N9             1.3381    -0.2679     0.4543 N.pl3   
  10 C10            1.8711    -1.5090     1.0215 C.3     
  11 C11            2.7122    -1.1849     2.2577 C.3     
  12 C12            3.2689    -2.4811     2.8501 C.3     
  13 C13            2.1109    -3.3988     3.2475 C.3     
  14 C14            1.2697    -3.7229     2.0112 C.3     
  15 C15            0.7131    -2.4267     1.4189 C.3     
  16 C16           -3.7295     1.9550    -0.4103 C.2     
  17 O17           -3.7729     3.0542    -0.9279 O.2     
  18 N18           -4.8713     1.3244    -0.0709 N.am    
  19 C19           -6.1646     1.9636    -0.3256 C.3     
  20 C20           -7.2475     0.8903    -0.4538 C.3     
  21 C21           -6.5035     2.8850     0.8177 C.2     
  22 O22           -5.7427     2.9963     1.7497 O.2     
  23 O23           -7.6505     3.5820     0.8007 O.3     
  24 C24           -6.9745     0.0441    -1.6705 C.2     
  25 C25           -7.4984     0.2137    -2.8948 C.2     
  26 N26           -7.0194    -0.7458    -3.7442 N.pl3   
  27 C27           -6.1523    -1.5785    -3.0687 C.ar    
  28 C28           -6.0823    -1.1155    -1.7428 C.ar    
  29 C29           -5.4049    -2.6889    -3.4474 C.ar    
  30 C30           -4.6088    -3.3299    -2.5249 C.ar    
  31 C31           -4.5422    -2.8777    -1.2094 C.ar    
  32 C32           -5.2706    -1.7732    -0.8156 C.ar    
  33 O33           -3.7509    -3.5225    -0.3109 O.3     
  34 C34            3.5460     0.8128    -0.1363 C.ar    
  35 C35            4.2176     2.0298    -0.0136 C.ar    
  36 C36            5.5950     2.0643    -0.0844 C.ar    
  37 C37            6.3103     0.8957    -0.2768 C.ar    
  38 C38            5.6503    -0.3140    -0.3997 C.ar    
  39 C39            4.2735    -0.3629    -0.3244 C.ar    
  40 H40           -1.1540    -1.5398     1.1451 H       
  41 H41           -3.2965    -0.4568     0.7130 H       
  42 H42           -1.2842     2.9421    -0.9600 H       
  43 H43            2.4933    -2.0097     0.2797 H       
  44 H44            3.5372    -0.5312     1.9746 H       
  45 H45            2.0900    -0.6842     2.9995 H       
  46 H46            3.8911    -2.9818     2.1083 H       
  47 H47            3.8681    -2.2502     3.7308 H       
  48 H48            2.5074    -4.3222     3.6695 H       
  49 H49            1.4886    -2.8981     3.9893 H       
  50 H50            1.8919    -4.2236     1.2694 H       
  51 H51            0.4447    -4.3766     2.2943 H       
  52 H52            0.0908    -1.9260     2.1607 H       
  53 H53            0.1138    -2.6576     0.5382 H       
  54 H54           -4.8367     0.4474     0.3421 H       
  55 H55           -6.1104     2.5374    -1.2508 H       
  56 H56           -7.2417     0.2603     0.4357 H       
  57 H57           -8.2222     1.3678    -0.5546 H       
  58 H58           -7.8242     4.1600     1.5563 H       
  59 H59           -8.1953     0.9921    -3.1685 H       
  60 H60           -7.2550    -0.8283    -4.6815 H       
  61 H61           -5.4493    -3.0483    -4.4648 H       
  62 H62           -4.0309    -4.1918    -2.8242 H       
  63 H63           -5.2179    -1.4232     0.2048 H       
  64 H64           -2.8472    -3.1812    -0.2666 H       
  65 H65            3.6604     2.9427     0.1363 H       
  66 H66            6.1160     3.0056     0.0100 H       
  67 H67            7.3884     0.9281    -0.3316 H       
  68 H68            6.2144    -1.2227    -0.5500 H       
  69 H69            3.7595    -1.3078    -0.4205 H       
@<TRIPOS>BOND
   1    1    2 ar
   2    1    7 1
   3    1    6 ar
   4    2    3 ar
   5    2    9 1
   6    3    4 ar
   7    3   40 1
   8    4    5 ar
   9    4   41 1
  10    5    6 ar
  11    5   16 1
  12    6   42 1
  13    7    8 2
  14    8    9 1
  15    8   34 1
  16    9   10 1
  17   10   11 1
  18   10   15 1
  19   10   43 1
  20   11   12 1
  21   11   44 1
  22   11   45 1
  23   12   13 1
  24   12   46 1
  25   12   47 1
  26   13   14 1
  27   13   48 1
  28   13   49 1
  29   14   15 1
  30   14   50 1
  31   14   51 1
  32   15   52 1
  33   15   53 1
  34   16   17 2
  35   16   18 am
  36   18   19 1
  37   18   54 1
  38   19   20 1
  39   19   21 1
  40   19   55 1
  41   20   24 1
  42   20   56 1
  43   20   57 1
  44   21   22 2
  45   21   23 1
  46   23   58 1
  47   24   25 2
  48   24   28 1
  49   25   26 1
  50   25   59 1
  51   26   27 1
  52   26   60 1
  53   27   28 ar
  54   27   29 ar
  55   28   32 ar
  56   29   30 ar
  57   29   61 1
  58   30   31 ar
  59   30   62 1
  60   31   32 ar
  61   31   33 1
  62   32   63 1
  63   33   64 1
  64   34   35 ar
  65   34   39 ar
  66   35   36 ar
  67   35   65 1
  68   36   37 ar
  69   36   66 1
  70   37   38 ar
  71   37   67 1
  72   38   39 ar
  73   38   68 1
  74   39   69 1

#	End of record

