#	Name: ASD02810013
#	Creating user name:	WinNT
#	Creation time:	15. 06. 2019 20:26

#	Modifying user name:	WinNT
#	Modification time:	15. 06. 2019 20:26

#	Program:	/corina/corina34_cracker 3.40 0067  02.08.2006

@<TRIPOS>MOLECULE
ASD02810013
  60   60    0    0    0
SMALL
NO_CHARGES


@<TRIPOS>ATOM
   1 O1             0.0021    -0.0041     0.0020 O.2     
   2 C2            -0.0143     1.2034     0.0087 C.2     
   3 C3             1.2804     1.9746     0.0004 C.3     
   4 C4             1.3376     2.8619    -1.2447 C.3     
   5 C5             2.5731     3.7231    -1.1915 C.ar    
   6 C6             3.7560     3.2679    -1.7442 C.ar    
   7 C7             4.8900     4.0554    -1.6968 C.ar    
   8 C8             4.8413     5.3039    -1.0938 C.ar    
   9 C9             3.6533     5.7583    -0.5400 C.ar    
  10 C10            2.5206     4.9694    -0.5950 C.ar    
  11 O11            5.9556     6.0803    -1.0455 O.3     
  12 N12            2.4067     1.0378    -0.0153 N.am    
  13 C13            2.8708     0.5225     1.1403 C.2     
  14 O14            2.3561     0.8342     2.1933 O.2     
  15 C15            4.0294    -0.4411     1.1240 C.3     
  16 N16            4.3409    -0.8533     2.4949 N.am    
  17 C17            5.5819    -1.2775     2.8054 C.2     
  18 O18            6.4407    -1.3180     1.9500 O.2     
  19 C19            5.9025    -1.7015     4.2156 C.3     
  20 N20            7.3053    -2.1165     4.2938 N.am    
  21 C21            7.8187    -2.5389     5.4662 C.2     
  22 O22            7.1194    -2.5753     6.4564 O.2     
  23 C23            9.2617    -2.9658     5.5467 C.3     
  24 C24            9.4016    -4.3936     5.0149 C.3     
  25 S25           11.1385    -4.9075     5.1117 S.3     
  26 N26            9.7092    -2.9181     6.9450 N.3     
  27 C27            3.6580    -1.6712     0.2935 C.3     
  28 C28            4.8744    -2.5914     0.1730 C.3     
  29 C29            4.4709    -3.8781    -0.5498 C.3     
  30 C30            5.9730    -1.8829    -0.6221 C.3     
  31 H31           -0.9568     1.7306     0.0160 H       
  32 H32            1.3381     2.5972     0.8933 H       
  33 H33            1.3694     2.2355    -2.1361 H       
  34 H34            0.4528     3.4976    -1.2787 H       
  35 H35            3.7934     2.2958    -2.2132 H       
  36 H36            5.8137     3.6993    -2.1283 H       
  37 H37            3.6128     6.7299    -0.0700 H       
  38 H38            1.5944     5.3245    -0.1679 H       
  39 H39            6.0574     6.6700    -1.8051 H       
  40 H40            2.8184     0.7885    -0.8575 H       
  41 H41            4.9001     0.0450     0.6840 H       
  42 H42            3.6541    -0.8209     3.1791 H       
  43 H43            5.7326    -0.8654     4.8939 H       
  44 H44            5.2605    -2.5355     4.4990 H       
  45 H45            7.8646    -2.0874     3.5018 H       
  46 H46            9.8738    -2.2928     4.9462 H       
  47 H47            8.7895    -5.0665     5.6154 H       
  48 H48            9.0695    -4.4290     3.9773 H       
  49 H49           11.1116    -6.1591     4.6200 H       
  50 H50            9.1569    -3.5340     7.5227 H       
  51 H51           10.6913    -3.1378     7.0181 H       
  52 H52            2.8441    -2.2071     0.7819 H       
  53 H53            3.3407    -1.3562    -0.7005 H       
  54 H54            5.2458    -2.8350     1.1683 H       
  55 H55            4.0995    -3.6345    -1.5452 H       
  56 H56            5.3375    -4.5336    -0.6357 H       
  57 H57            3.6882    -4.3829     0.0166 H       
  58 H58            6.2604    -0.9662    -0.1072 H       
  59 H59            6.8396    -2.5384    -0.7080 H       
  60 H60            5.6016    -1.6393    -1.6175 H       
@<TRIPOS>BOND
   1    1    2 2
   2    2    3 1
   3    2   31 1
   4    3    4 1
   5    3   12 1
   6    3   32 1
   7    4    5 1
   8    4   33 1
   9    4   34 1
  10    5    6 ar
  11    5   10 ar
  12    6    7 ar
  13    6   35 1
  14    7    8 ar
  15    7   36 1
  16    8    9 ar
  17    8   11 1
  18    9   10 ar
  19    9   37 1
  20   10   38 1
  21   11   39 1
  22   12   13 am
  23   12   40 1
  24   13   14 2
  25   13   15 1
  26   15   16 1
  27   15   27 1
  28   15   41 1
  29   16   17 am
  30   16   42 1
  31   17   18 2
  32   17   19 1
  33   19   20 1
  34   19   43 1
  35   19   44 1
  36   20   21 am
  37   20   45 1
  38   21   22 2
  39   21   23 1
  40   23   24 1
  41   23   26 1
  42   23   46 1
  43   24   25 1
  44   24   47 1
  45   24   48 1
  46   25   49 1
  47   26   50 1
  48   26   51 1
  49   27   28 1
  50   27   52 1
  51   27   53 1
  52   28   29 1
  53   28   30 1
  54   28   54 1
  55   29   55 1
  56   29   56 1
  57   29   57 1
  58   30   58 1
  59   30   59 1
  60   30   60 1

#	End of record

