#	Name: ASD08070036
#	Creating user name:	WinNT
#	Creation time:	15. 06. 2019 21:14

#	Modifying user name:	WinNT
#	Modification time:	15. 06. 2019 21:14

#	Program:	/corina/corina34_cracker 3.40 0067  02.08.2006

@<TRIPOS>MOLECULE
ASD08070036
  38   39    0    0    0
SMALL
NO_CHARGES


@<TRIPOS>ATOM
   1 C1            -0.0162     1.3449     0.0094 C.2     
   2 O2             0.0021    -0.0041     0.0020 O.3     
   3 C3             1.1586     2.2228     0.0029 C.2     
   4 N4             2.3970     1.6911    -0.0112 N.am    
   5 O5             1.0153     3.4312     0.0103 O.2     
   6 C6             3.5706     2.5680    -0.0177 C.3     
   7 C7             4.7672     1.8230     0.5771 C.3     
   8 C8             3.8905     2.9812    -1.4557 C.3     
   9 C9             5.1161     3.8970    -1.4625 C.3     
  10 C10            5.9928     2.7388     0.5703 C.3     
  11 C11           -1.2551    -0.4657     0.0116 C.2     
  12 C12           -2.1042     0.5854     0.0253 C.2     
  13 C13           -1.3202     1.7497     0.0181 C.2     
  14 C14            6.3128     3.1520    -0.8677 C.3     
  15 C15            4.4473     1.4098     2.0150 C.3     
  16 C16           -1.6567    -1.9182     0.0068 C.3     
  17 C17           -3.6097     0.5200     0.0386 C.3     
  18 H18            2.5113     0.7279    -0.0171 H       
  19 H19            3.3633     3.4569     0.5781 H       
  20 H20            4.9745     0.9341    -0.0188 H       
  21 H21            4.0978     2.0924    -2.0516 H       
  22 H22            3.0380     3.5120    -1.8795 H       
  23 H23            5.3441     4.1914    -2.4870 H       
  24 H24            4.9088     4.7859    -0.8666 H       
  25 H25            5.7855     3.6276     1.1661 H       
  26 H26            6.8454     2.2080     0.9940 H       
  27 H27           -1.6789     2.7684     0.0257 H       
  28 H28            6.5201     2.2631    -1.4636 H       
  29 H29            7.1860     3.8044    -0.8725 H       
  30 H30            3.5741     0.7573     2.0199 H       
  31 H31            5.2998     0.8790     2.4388 H       
  32 H32            4.2400     2.2986     2.6109 H       
  33 H33           -0.7630    -2.5422    -0.0052 H       
  34 H34           -2.2404    -2.1367     0.9011 H       
  35 H35           -2.2570    -2.1263    -0.8788 H       
  36 H36           -3.9634     0.4982     1.0694 H       
  37 H37           -4.0159     1.3963    -0.4665 H       
  38 H38           -3.9387    -0.3820    -0.4775 H       
@<TRIPOS>BOND
   1    1    2 1
   2    1    3 1
   3    1   13 2
   4    2   11 1
   5    3    4 am
   6    3    5 2
   7    4    6 1
   8    4   18 1
   9    6    7 1
  10    6    8 1
  11    6   19 1
  12    7   10 1
  13    7   15 1
  14    7   20 1
  15    8    9 1
  16    8   21 1
  17    8   22 1
  18    9   14 1
  19    9   23 1
  20    9   24 1
  21   10   14 1
  22   10   25 1
  23   10   26 1
  24   11   12 2
  25   11   16 1
  26   12   13 1
  27   12   17 1
  28   13   27 1
  29   14   28 1
  30   14   29 1
  31   15   30 1
  32   15   31 1
  33   15   32 1
  34   16   33 1
  35   16   34 1
  36   16   35 1
  37   17   36 1
  38   17   37 1
  39   17   38 1

#	End of record

