#	Name: ASD01917787
#	Creating user name:	WinNT
#	Creation time:	15. 06. 2019 20:10

#	Modifying user name:	WinNT
#	Modification time:	15. 06. 2019 20:10

#	Program:	/corina/corina34_cracker 3.40 0067  02.08.2006

@<TRIPOS>MOLECULE
ASD01917787
  43   46    0    0    0
SMALL
NO_CHARGES


@<TRIPOS>ATOM
   1 C1            -0.0135     1.3184    -0.0051 C.2     
   2 C2            -0.0103    -0.0285     0.0043 C.2     
   3 C3            -1.2500    -0.8863     0.0241 C.3     
   4 C4            -2.4379    -0.0295     0.4797 C.3     
   5 N5            -2.4043     1.2578    -0.2305 N.am    
   6 C6            -1.2649     2.1610     0.0132 C.3     
   7 C7            -3.3897     1.6029    -1.0828 C.2     
   8 O8            -4.2643     0.8042    -1.3561 O.2     
   9 C9            -3.4069     2.9530    -1.6852 C.ar    
  10 O10            1.2631     1.7232    -0.0269 O.3     
  11 C11            2.0355     0.6252    -0.0272 C.2     
  12 N12            1.2678    -0.4298    -0.0080 N.2     
  13 C13            3.5424     0.6131    -0.0470 C.3     
  14 O14            4.0009     0.5977    -1.4003 O.3     
  15 C15            5.3456     0.5853    -1.5960 C.ar    
  16 C16            5.8602     0.5701    -2.8843 C.ar    
  17 C17            7.2275     0.5574    -3.0806 C.ar    
  18 C18            8.0831     0.5600    -1.9945 C.ar    
  19 C19            7.5728     0.5748    -0.7095 C.ar    
  20 C20            6.2063     0.5937    -0.5080 C.ar    
  21 C21           -2.9664     4.0538    -0.9497 C.ar    
  22 C22           -2.9845     5.3133    -1.5188 C.ar    
  23 C23           -3.4389     5.4829    -2.8164 C.ar    
  24 C24           -3.8774     4.3939    -3.5499 C.ar    
  25 C25           -3.8585     3.1305    -2.9940 C.ar    
  26 Br26          -4.4969     4.6364    -5.3200 Br      
  27 F27           -2.5588     6.3806    -0.8083 F       
  28 H28           -1.4419    -1.2741    -0.9763 H       
  29 H29           -1.1098    -1.7148     0.7184 H       
  30 H30           -3.3694    -0.5474     0.2514 H       
  31 H31           -2.3706     0.1450     1.5535 H       
  32 H32           -1.3739     2.6417     0.9854 H       
  33 H33           -1.2156     2.9160    -0.7714 H       
  34 H34            3.9195     1.5045     0.4543 H       
  35 H35            3.9054    -0.2753     0.4698 H       
  36 H36            5.1923     0.5677    -3.7331 H       
  37 H37            7.6286     0.5452    -4.0833 H       
  38 H38            9.1518     0.5501    -2.1500 H       
  39 H39            8.2432     0.5760     0.1372 H       
  40 H40            5.8081     0.6052     0.4959 H       
  41 H41           -2.6123     3.9222     0.0621 H       
  42 H42           -3.4515     6.4687    -3.2574 H       
  43 H43           -4.2010     2.2820    -3.5677 H       
@<TRIPOS>BOND
   1    1    2 2
   2    1   10 1
   3    1    6 1
   4    2    3 1
   5    2   12 1
   6    3    4 1
   7    3   28 1
   8    3   29 1
   9    4    5 1
  10    4   30 1
  11    4   31 1
  12    5    6 1
  13    5    7 am
  14    6   32 1
  15    6   33 1
  16    7    8 2
  17    7    9 1
  18    9   21 ar
  19    9   25 ar
  20   10   11 1
  21   11   12 2
  22   11   13 1
  23   13   14 1
  24   13   34 1
  25   13   35 1
  26   14   15 1
  27   15   16 ar
  28   15   20 ar
  29   16   17 ar
  30   16   36 1
  31   17   18 ar
  32   17   37 1
  33   18   19 ar
  34   18   38 1
  35   19   20 ar
  36   19   39 1
  37   20   40 1
  38   21   22 ar
  39   21   41 1
  40   22   23 ar
  41   22   27 1
  42   23   24 ar
  43   23   42 1
  44   24   25 ar
  45   24   26 1
  46   25   43 1

#	End of record

