#	Name: ASD04590850
#	Creating user name:	WinNT
#	Creation time:	15. 06. 2019 20:51

#	Modifying user name:	WinNT
#	Modification time:	15. 06. 2019 20:51

#	Program:	/corina/corina34_cracker 3.40 0067  02.08.2006

@<TRIPOS>MOLECULE
ASD04590850
  71   76    0    0    0
SMALL
NO_CHARGES


@<TRIPOS>ATOM
   1 N1            -3.5556    -3.7995    -1.2183 N.ar    
   2 C2            -2.3055    -3.3583    -1.2734 C.ar    
   3 N3            -1.2760    -4.1707    -1.4498 N.ar    
   4 C4            -1.4619    -5.4805    -1.5804 C.ar    
   5 C5            -2.7785    -5.9808    -1.5264 C.ar    
   6 C6            -3.8289    -5.0882    -1.3393 C.ar    
   7 N7            -0.6042    -6.5366    -1.7697 N.pl3   
   8 C8            -1.3049    -7.7239    -1.8436 C.ar    
   9 C9            -2.6749    -7.4351    -1.6972 C.ar    
  10 N10           -0.9310    -8.9844    -2.0150 N.ar    
  11 N11           -1.7785    -9.9471    -2.0513 N.ar    
  12 C12           -3.0805    -9.7652    -1.9224 C.ar    
  13 C13           -3.5857    -8.4897    -1.7384 C.ar    
  14 N14           -2.0699    -1.9997    -1.1420 N.pl3   
  15 C15           -3.1416    -1.1102    -1.0661 C.ar    
  16 N16           -4.3764    -1.5589    -1.2235 N.ar    
  17 C17           -5.4201    -0.7540    -1.1598 C.ar    
  18 C18           -5.2559     0.6026    -0.9239 C.ar    
  19 C19           -3.9694     1.1119    -0.7529 C.ar    
  20 C20           -2.9005     0.2371    -0.8203 C.ar    
  21 N21           -6.3681     1.4503    -0.8586 N.3     
  22 C22            0.8521    -6.4194    -1.8785 C.3     
  23 C23           -7.6137     0.7011    -1.0670 C.3     
  24 C24           -8.7916     1.6758    -1.1343 C.3     
  25 C25           -8.8649     2.4711     0.1722 C.3     
  26 C26           -7.5379     3.2034     0.3899 C.3     
  27 C27           -6.3964     2.1844     0.4129 C.3     
  28 N28           -9.9578     3.4493     0.0908 N.3     
  29 C29          -10.1342     4.1493     1.3702 C.3     
  30 C30           -9.7309     4.4023    -1.0038 C.3     
  31 C31            1.5341    -7.2898    -0.8028 C.3     
  32 C32            1.3236    -6.9553    -3.2416 C.3     
  33 C33            2.2758    -8.1327    -2.9468 C.3     
  34 C34            1.8573    -8.6155    -1.5358 C.3     
  35 C35          -11.0355     5.1368    -1.3192 C.3     
  36 C36          -10.7983     3.2095     2.3784 C.3     
  37 H37           -4.8487    -5.4408    -1.2932 H       
  38 H38           -3.7505   -10.6114    -1.9606 H       
  39 H39           -4.6464    -8.3179    -1.6304 H       
  40 H40           -1.1597    -1.6669    -1.1027 H       
  41 H41           -6.4135    -1.1562    -1.2933 H       
  42 H42           -3.8116     2.1642    -0.5682 H       
  43 H43           -1.8904     0.5972    -0.6921 H       
  44 H44            1.1522    -5.3779    -1.7626 H       
  45 H45           -7.5501     0.1434    -2.0014 H       
  46 H46           -7.7631     0.0074    -0.2396 H       
  47 H47           -8.6497     2.3611    -1.9699 H       
  48 H48           -9.7179     1.1183    -1.2733 H       
  49 H49           -9.0457     1.7899     1.0036 H       
  50 H50           -7.3763     3.9127    -0.4218 H       
  51 H51           -7.5684     3.7372     1.3397 H       
  52 H52           -6.5514     1.4838     1.2334 H       
  53 H53           -5.4485     2.7040     0.5535 H       
  54 H54           -9.1616     4.4615     1.7506 H       
  55 H55          -10.7645     5.0259     1.2208 H       
  56 H56           -8.9706     5.1240    -0.7054 H       
  57 H57           -9.3935     3.8644    -1.8898 H       
  58 H58            2.4503    -6.8146    -0.4521 H       
  59 H59            0.8540    -7.4702     0.0296 H       
  60 H60            0.4690    -7.3026    -3.8222 H       
  61 H61            1.8534    -6.1742    -3.7869 H       
  62 H62            2.1369    -8.9282    -3.6789 H       
  63 H63            3.3117    -7.7936    -2.9423 H       
  64 H64            2.6798    -9.1369    -1.0462 H       
  65 H65            0.9739    -9.2515    -1.5914 H       
  66 H66          -11.7892     4.4175    -1.6395 H       
  67 H67          -11.3849     5.6561    -0.4268 H       
  68 H68          -10.8618     5.8602    -2.1159 H       
  69 H69          -10.1260     2.3807     2.6001 H       
  70 H70          -11.0161     3.7561     3.2959 H       
  71 H71          -11.7261     2.8220     1.9575 H       
@<TRIPOS>BOND
   1    1    2 ar
   2    1    6 ar
   3    2    3 ar
   4    2   14 1
   5    3    4 ar
   6    4    5 ar
   7    4    7 1
   8    5    6 ar
   9    5    9 1
  10    6   37 1
  11    7    8 1
  12    7   22 1
  13    8    9 ar
  14    8   10 ar
  15    9   13 ar
  16   10   11 ar
  17   11   12 ar
  18   12   13 ar
  19   12   38 1
  20   13   39 1
  21   14   15 1
  22   14   40 1
  23   15   16 ar
  24   15   20 ar
  25   16   17 ar
  26   17   18 ar
  27   17   41 1
  28   18   19 ar
  29   18   21 1
  30   19   20 ar
  31   19   42 1
  32   20   43 1
  33   21   23 1
  34   21   27 1
  35   22   32 1
  36   22   31 1
  37   22   44 1
  38   23   24 1
  39   23   45 1
  40   23   46 1
  41   24   25 1
  42   24   47 1
  43   24   48 1
  44   25   26 1
  45   25   28 1
  46   25   49 1
  47   26   27 1
  48   26   50 1
  49   26   51 1
  50   27   52 1
  51   27   53 1
  52   28   29 1
  53   28   30 1
  54   29   36 1
  55   29   54 1
  56   29   55 1
  57   30   35 1
  58   30   56 1
  59   30   57 1
  60   31   34 1
  61   31   58 1
  62   31   59 1
  63   32   33 1
  64   32   60 1
  65   32   61 1
  66   33   34 1
  67   33   62 1
  68   33   63 1
  69   34   64 1
  70   34   65 1
  71   35   66 1
  72   35   67 1
  73   35   68 1
  74   36   69 1
  75   36   70 1
  76   36   71 1

#	End of record

