#	Name: ASD01150892
#	Creating user name:	WinNT
#	Creation time:	15. 06. 2019 19:05

#	Modifying user name:	WinNT
#	Modification time:	15. 06. 2019 19:05

#	Program:	/corina/corina34_cracker 3.40 0067  02.08.2006

@<TRIPOS>MOLECULE
ASD01150892
  46   48    0    0    0
SMALL
NO_CHARGES


@<TRIPOS>ATOM
   1 C1            -0.0178     1.4596     0.0101 C.2     
   2 C2             0.0021    -0.0041     0.0020 C.2     
   3 N3            -1.1558    -0.6938     0.0094 N.am    
   4 O4             1.0643    -0.5983    -0.0113 O.2     
   5 C5            -1.1370    -2.0833     0.0017 C.2     
   6 N6            -0.0478    -2.8556    -0.0124 N.2     
   7 C7            -0.3958    -4.1262    -0.0155 C.2     
   8 N8            -1.7504    -4.2219    -0.0034 N.pl3   
   9 C9            -2.2480    -2.9175     0.0135 C.2     
  10 C10           -3.6018    -2.5267     0.0308 C.2     
  11 O11           -4.5751    -3.4630     0.0323 O.3     
  12 O12           -3.8941    -1.3444     0.0444 O.2     
  13 C13           -5.9252    -2.9953     0.0503 C.3     
  14 C14           -6.8793    -4.1914     0.0492 C.3     
  15 S15            0.7216    -5.4885    -0.0334 S.3     
  16 C16            2.2991    -4.6009    -0.0433 C.3     
  17 C17           -2.5383    -5.4570    -0.0023 C.3     
  18 C18           -2.7957    -5.8874     1.4188 C.ar    
  19 C19           -3.9230    -5.4409     2.0828 C.ar    
  20 C20           -4.1591    -5.8356     3.3864 C.ar    
  21 C21           -3.2682    -6.6772     4.0258 C.ar    
  22 C22           -2.1414    -7.1244     3.3616 C.ar    
  23 C23           -1.9075    -6.7331     2.0565 C.ar    
  24 C24            1.0858     2.2685     0.0039 C.2     
  25 C25            0.7762     3.6091     0.0132 C.2     
  26 C26           -0.5319     3.8893     0.0266 C.2     
  27 S27           -1.4636     2.4601     0.0216 S.3     
  28 Cl28           2.7131     1.6642    -0.0134 Cl      
  29 H29           -2.0023    -0.2203     0.0200 H       
  30 H30           -6.0912    -2.3989     0.9474 H       
  31 H31           -6.1094    -2.3828    -0.8324 H       
  32 H32           -6.6952    -4.8038     0.9319 H       
  33 H33           -7.9092    -3.8346     0.0630 H       
  34 H34           -6.7134    -4.7878    -0.8479 H       
  35 H35            2.3555    -3.9701    -0.9305 H       
  36 H36            2.3721    -3.9798     0.8494 H       
  37 H37            3.1196    -5.3184    -0.0549 H       
  38 H38           -3.4886    -5.2822    -0.5068 H       
  39 H39           -1.9881    -6.2394    -0.5249 H       
  40 H40           -4.6191    -4.7834     1.5832 H       
  41 H41           -5.0394    -5.4863     3.9053 H       
  42 H42           -3.4523    -6.9850     5.0445 H       
  43 H43           -1.4451    -7.7816     3.8613 H       
  44 H44           -1.0272    -7.0825     1.5375 H       
  45 H45            1.5337     4.3788     0.0104 H       
  46 H46           -0.9435     4.8878     0.0352 H       
@<TRIPOS>BOND
   1    1    2 1
   2    1   24 2
   3    1   27 1
   4    2    3 am
   5    2    4 2
   6    3    5 1
   7    3   29 1
   8    5    6 1
   9    5    9 2
  10    6    7 2
  11    7    8 1
  12    7   15 1
  13    8    9 1
  14    8   17 1
  15    9   10 1
  16   10   11 1
  17   10   12 2
  18   11   13 1
  19   13   14 1
  20   13   30 1
  21   13   31 1
  22   14   32 1
  23   14   33 1
  24   14   34 1
  25   15   16 1
  26   16   35 1
  27   16   36 1
  28   16   37 1
  29   17   18 1
  30   17   38 1
  31   17   39 1
  32   18   19 ar
  33   18   23 ar
  34   19   20 ar
  35   19   40 1
  36   20   21 ar
  37   20   41 1
  38   21   22 ar
  39   21   42 1
  40   22   23 ar
  41   22   43 1
  42   23   44 1
  43   24   25 1
  44   24   28 1
  45   25   26 2
  46   25   45 1
  47   26   27 1
  48   26   46 1

#	End of record

