#	Name: ASD03090962
#	Creating user name:	WinNT
#	Creation time:	15. 06. 2019 20:29

#	Modifying user name:	WinNT
#	Modification time:	15. 06. 2019 20:29

#	Program:	/corina/corina34_cracker 3.40 0067  02.08.2006

@<TRIPOS>MOLECULE
ASD03090962
  51   54    0    0    0
SMALL
NO_CHARGES


@<TRIPOS>ATOM
   1 N1             0.2487     1.7279    -0.3548 N.am    
   2 C2            -0.0477     0.4223    -0.1998 C.2     
   3 O3             0.8455    -0.3894    -0.0298 O.2     
   4 N4            -1.3207     0.0178    -0.2325 N.2     
   5 S5            -0.5053    -2.5658     0.1707 S.3     
   6 C6            -1.6134    -1.2715    -0.0794 C.2     
   7 N7            -2.8466    -1.8375    -0.0877 N.pl3   
   8 C8            -2.9067    -3.1862     0.0897 C.2     
   9 C9            -1.7536    -3.8207     0.2541 C.2     
  10 O10           -7.4099     1.2170    -0.7989 O.3     
  11 C11           -8.5765     0.5506    -1.2934 C.3     
  12 C12           -8.7545    -0.7543    -0.5055 C.3     
  13 O13           -7.5866    -1.5589    -0.7015 O.3     
  14 C14           -6.3843    -0.9331    -0.5766 C.ar    
  15 C15           -6.2953     0.4535    -0.6271 C.ar    
  16 C16           -5.2390    -1.6926    -0.3966 C.ar    
  17 C17           -4.0052    -1.0692    -0.2700 C.ar    
  18 C18           -3.9191     0.3151    -0.3236 C.ar    
  19 C19           -5.0607     1.0727    -0.5015 C.ar    
  20 F20           -8.9065    -0.4669     0.8552 F       
  21 F21           -9.8822    -1.4377    -0.9730 F       
  22 F22           -9.6982     1.3671    -1.1137 F       
  23 F23           -8.4147     0.2626    -2.6529 F       
  24 C24           -1.5482    -5.2983     0.4675 C.3     
  25 C25            1.6445     2.1714    -0.3190 C.3     
  26 C26            2.1731     2.2807    -1.7259 C.ar    
  27 C27            2.8991     1.2357    -2.2660 C.ar    
  28 C28            3.3805     1.3461    -3.5613 C.ar    
  29 C29            3.1126     2.5087    -4.2682 C.ar    
  30 C30            2.3798     3.5114    -3.6623 C.ar    
  31 N31            1.9332     3.3698    -2.4295 N.ar    
  32 C32            3.1642    -0.0076    -1.4568 C.3     
  33 C33           -0.8245     2.7027    -0.5652 C.3     
  34 H34           -3.8488    -3.7144     0.0963 H       
  35 H35           -5.3064    -2.7697    -0.3556 H       
  36 H36           -2.9592     0.8002    -0.2262 H       
  37 H37           -4.9914     2.1496    -0.5432 H       
  38 H38           -0.4831    -5.5061     0.5692 H       
  39 H39           -2.0674    -5.6101     1.3737 H       
  40 H40           -1.9456    -5.8474    -0.3861 H       
  41 H41            1.7040     3.1447     0.1682 H       
  42 H42            2.2410     1.4491     0.2383 H       
  43 H43            3.9510     0.5459    -4.0092 H       
  44 H44            3.4724     2.6291    -5.2794 H       
  45 H45            2.1669     4.4199    -4.2061 H       
  46 H46            2.3978    -0.7520    -1.6728 H       
  47 H47            4.1438    -0.4086    -1.7173 H       
  48 H48            3.1429     0.2384    -0.3952 H       
  49 H49           -1.2271     3.0135     0.3988 H       
  50 H50           -0.4282     3.5716    -1.0907 H       
  51 H51           -1.6166     2.2483    -1.1604 H       
@<TRIPOS>BOND
   1    1    2 am
   2    1   25 1
   3    1   33 1
   4    2    3 2
   5    2    4 1
   6    4    6 2
   7    5    6 1
   8    5    9 1
   9    6    7 1
  10    7    8 1
  11    7   17 1
  12    8    9 2
  13    8   34 1
  14    9   24 1
  15   10   11 1
  16   10   15 1
  17   11   12 1
  18   11   22 1
  19   11   23 1
  20   12   13 1
  21   12   20 1
  22   12   21 1
  23   13   14 1
  24   14   15 ar
  25   14   16 ar
  26   15   19 ar
  27   16   17 ar
  28   16   35 1
  29   17   18 ar
  30   18   19 ar
  31   18   36 1
  32   19   37 1
  33   24   38 1
  34   24   39 1
  35   24   40 1
  36   25   26 1
  37   25   41 1
  38   25   42 1
  39   26   27 ar
  40   26   31 ar
  41   27   28 ar
  42   27   32 1
  43   28   29 ar
  44   28   43 1
  45   29   30 ar
  46   29   44 1
  47   30   31 ar
  48   30   45 1
  49   32   46 1
  50   32   47 1
  51   32   48 1
  52   33   49 1
  53   33   50 1
  54   33   51 1

#	End of record

