#	Name: ASD02562075
#	Creating user name:	WinNT
#	Creation time:	15. 06. 2019 20:25

#	Modifying user name:	WinNT
#	Modification time:	15. 06. 2019 20:25

#	Program:	/corina/corina34_cracker 3.40 0067  02.08.2006

@<TRIPOS>MOLECULE
ASD02562075
  43   46    0    0    0
SMALL
NO_CHARGES


@<TRIPOS>ATOM
   1 C1             0.0961     0.9548     1.0996 C.2     
   2 C2             0.2519    -0.4434     1.1153 C.2     
   3 C3             1.4405    -0.9998     0.8045 C.2     
   4 N4             2.5114    -0.2143     0.4698 N.pl3   
   5 C5             2.3883     1.1560     0.4457 C.2     
   6 C6             1.1490     1.7483     0.7692 C.2     
   7 C7             3.7990    -0.5136     0.1207 C.2     
   8 C8             4.4389     0.6861    -0.1106 C.2     
   9 N9             3.5528     1.6775     0.0959 N.2     
  10 N10            4.3582    -1.7878     0.0181 N.3     
  11 C11            5.8542     0.8539    -0.5157 C.ar    
  12 C12            3.3297    -2.8270     0.1594 C.3     
  13 C13            3.8065    -4.1122    -0.5201 C.3     
  14 C14            2.7352    -5.1946    -0.3729 C.3     
  15 C15            2.4846    -5.4656     1.1119 C.3     
  16 C16            2.0078    -4.1804     1.7915 C.3     
  17 C17            3.0791    -3.0980     1.6443 C.3     
  18 C18            6.8604     0.1551     0.1500 C.ar    
  19 C19            8.1770     0.3155    -0.2317 C.ar    
  20 C20            8.5000     1.1678    -1.2723 C.ar    
  21 C21            7.5066     1.8644    -1.9374 C.ar    
  22 C22            6.1852     1.7078    -1.5691 C.ar    
  23 Cl23           4.9397     2.5823    -2.4044 Cl      
  24 Br24          -1.2124    -1.5481     1.5749 Br      
  25 H25           -0.8585     1.3961     1.3451 H       
  26 H26            1.5490    -2.0743     0.8201 H       
  27 H27            1.0380     2.8225     0.7539 H       
  28 H28            4.8616    -1.8929    -0.8500 H       
  29 H29            2.4053    -2.4895    -0.3094 H       
  30 H30            3.9850    -3.9192    -1.5779 H       
  31 H31            4.7308    -4.4497    -0.0513 H       
  32 H32            1.8108    -4.8571    -0.8418 H       
  33 H33            3.0749    -6.1102    -0.8571 H       
  34 H34            1.7214    -6.2367     1.2167 H       
  35 H35            3.4089    -5.8031     1.5807 H       
  36 H36            1.0835    -3.8429     1.3226 H       
  37 H37            1.8293    -4.3734     2.8493 H       
  38 H38            4.0034    -3.4355     2.1131 H       
  39 H39            2.7394    -2.1824     2.1284 H       
  40 H40            6.6101    -0.5101     0.9631 H       
  41 H41            8.9570    -0.2254     0.2834 H       
  42 H42            9.5319     1.2902    -1.5666 H       
  43 H43            7.7650     2.5283    -2.7491 H       
@<TRIPOS>BOND
   1    1    2 1
   2    1    6 2
   3    1   25 1
   4    2    3 2
   5    2   24 1
   6    3    4 1
   7    3   26 1
   8    4    5 1
   9    4    7 1
  10    5    6 1
  11    5    9 2
  12    6   27 1
  13    7    8 2
  14    7   10 1
  15    8    9 1
  16    8   11 1
  17   10   12 1
  18   10   28 1
  19   11   18 ar
  20   11   22 ar
  21   12   13 1
  22   12   17 1
  23   12   29 1
  24   13   14 1
  25   13   30 1
  26   13   31 1
  27   14   15 1
  28   14   32 1
  29   14   33 1
  30   15   16 1
  31   15   34 1
  32   15   35 1
  33   16   17 1
  34   16   36 1
  35   16   37 1
  36   17   38 1
  37   17   39 1
  38   18   19 ar
  39   18   40 1
  40   19   20 ar
  41   19   41 1
  42   20   21 ar
  43   20   42 1
  44   21   22 ar
  45   21   43 1
  46   22   23 1

#	End of record

