#	Name: ASD01870421
#	Creating user name:	WinNT
#	Creation time:	15. 06. 2019 19:39

#	Modifying user name:	WinNT
#	Modification time:	15. 06. 2019 19:39

#	Program:	/corina/corina34_cracker 3.40 0067  02.08.2006

@<TRIPOS>MOLECULE
ASD01870421
  55   58    0    0    0
SMALL
NO_CHARGES


@<TRIPOS>ATOM
   1 N1            -0.2941     2.0048    -0.3653 N.am    
   2 C2            -0.0628     0.5651    -0.1948 C.3     
   3 C3             0.6637     2.9408    -0.5165 C.2     
   4 C4             0.2823     4.3893    -0.6826 C.3     
   5 O5             1.8326     2.6175    -0.5190 O.2     
   6 C6             1.4877     5.3331    -0.8439 C.3     
   7 N7             0.6948     6.0035    -1.8926 N.am    
   8 C8            -0.0836     4.7721    -2.1281 C.3     
   9 S9             0.6833     7.5261    -2.5437 S.o2    
  10 C10            1.8493     7.4344    -3.9303 C.3     
  11 C11            1.3694     6.3815    -4.9313 C.3     
  12 O12           -0.6451     7.6938    -3.0195 O.2     
  13 O13            1.2012     8.3530    -1.5106 O.2     
  14 C14            1.9278     8.7970    -4.6217 C.3     
  15 C15            2.5251     9.8242    -3.6579 C.3     
  16 C16           -1.4348    -0.1294    -0.1292 C.3     
  17 C17           -2.4041     0.9243    -0.7547 C.3     
  18 C18           -1.7441     2.2574    -0.3501 C.3     
  19 C19           -1.4626    -1.2844    -1.1469 C.3     
  20 N20           -1.9549    -0.7441    -2.4255 N.3     
  21 C21           -2.1849     0.7059    -2.2679 C.3     
  22 C22           -1.0524    -0.9970    -3.4542 C.ar    
  23 C23           -0.3252    -2.1866    -3.4918 C.ar    
  24 C24            0.5591    -2.3988    -4.5284 C.ar    
  25 N25            0.7209    -1.4940    -5.4758 N.ar    
  26 C26            0.0517    -0.3563    -5.4756 C.ar    
  27 C27           -0.8559    -0.0700    -4.4777 C.ar    
  28 H28            0.5056     0.1800    -1.0414 H       
  29 H29            0.4857     0.3866     0.7301 H       
  30 H30           -0.4423     4.7256     0.0590 H       
  31 H31            1.6774     5.9568     0.0297 H       
  32 H32            2.3846     4.8401    -1.2189 H       
  33 H33            0.3516     4.1143    -2.8804 H       
  34 H34           -1.1486     4.9478    -2.2799 H       
  35 H35            2.8358     7.1586    -3.5578 H       
  36 H36            2.0700     6.3263    -5.7645 H       
  37 H37            1.3135     5.4107    -4.4388 H       
  38 H38            0.3829     6.6573    -5.3038 H       
  39 H39            2.5590     8.7194    -5.5069 H       
  40 H40            0.9270     9.1135    -4.9156 H       
  41 H41            2.5810    10.7950    -4.1504 H       
  42 H42            1.8939     9.9018    -2.7726 H       
  43 H43            3.5259     9.5077    -3.3640 H       
  44 H44           -1.7150    -0.4282     0.8809 H       
  45 H45           -3.4395     0.8270    -0.4280 H       
  46 H46           -2.0597     2.5450     0.6527 H       
  47 H47           -2.0022     3.0381    -1.0657 H       
  48 H48           -0.4576    -1.6855    -1.2779 H       
  49 H49           -2.1317    -2.0700    -0.7958 H       
  50 H50           -3.0707     1.0104    -2.8254 H       
  51 H51           -1.3134     1.2655    -2.6077 H       
  52 H52           -0.4526    -2.9309    -2.7197 H       
  53 H53            1.1267    -3.3168    -4.5655 H       
  54 H54            0.2139     0.3577    -6.2696 H       
  55 H55           -1.4004     0.8626    -4.4837 H       
@<TRIPOS>BOND
   1    1    2 1
   2    1    3 am
   3    1   18 1
   4    2   16 1
   5    2   28 1
   6    2   29 1
   7    3    4 1
   8    3    5 2
   9    4    6 1
  10    4    8 1
  11    4   30 1
  12    6    7 1
  13    6   31 1
  14    6   32 1
  15    7    8 1
  16    7    9 am
  17    8   33 1
  18    8   34 1
  19    9   10 1
  20    9   12 2
  21    9   13 2
  22   10   14 1
  23   10   11 1
  24   10   35 1
  25   11   36 1
  26   11   37 1
  27   11   38 1
  28   14   15 1
  29   14   39 1
  30   14   40 1
  31   15   41 1
  32   15   42 1
  33   15   43 1
  34   16   17 1
  35   16   19 1
  36   16   44 1
  37   17   18 1
  38   17   21 1
  39   17   45 1
  40   18   46 1
  41   18   47 1
  42   19   20 1
  43   19   48 1
  44   19   49 1
  45   20   21 1
  46   20   22 1
  47   21   50 1
  48   21   51 1
  49   22   23 ar
  50   22   27 ar
  51   23   24 ar
  52   23   52 1
  53   24   25 ar
  54   24   53 1
  55   25   26 ar
  56   26   27 ar
  57   26   54 1
  58   27   55 1

#	End of record

