#	Name: ASD01040040
#	Creating user name:	WinNT
#	Creation time:	15. 06. 2019 18:58

#	Modifying user name:	WinNT
#	Modification time:	15. 06. 2019 18:58

#	Program:	/corina/corina34_cracker 3.40 0067  02.08.2006

@<TRIPOS>MOLECULE
ASD01040040
  44   46    0    0    0
SMALL
NO_CHARGES


@<TRIPOS>ATOM
   1 O1            -0.0163     1.3545     0.0095 O.3     
   2 C2             0.0021    -0.0041     0.0020 C.ar    
   3 C3             0.0230    -0.7032     1.2014 C.ar    
   4 C4             0.0421    -2.0820     1.1972 C.ar    
   5 C5             0.0401    -2.7740    -0.0132 C.ar    
   6 C6             0.0602    -4.2565    -0.0214 C.2     
   7 C7             1.2390    -4.9848     0.5061 C.ar    
   8 C8             2.4732    -4.8722    -0.1328 C.ar    
   9 C9             3.5677    -5.5505     0.3606 C.ar    
  10 C10            3.4416    -6.3452     1.4920 C.ar    
  11 O11            4.5219    -7.0123     1.9757 O.3     
  12 C12            2.2140    -6.4594     2.1306 C.ar    
  13 C13            1.1170    -5.7792     1.6455 C.ar    
  14 C14           -0.9860    -4.9375    -0.5051 C.2     
  15 C15           -2.1958    -4.2140    -1.0537 C.3     
  16 C16           -3.4502    -4.7855    -0.3845 C.3     
  17 C17           -3.4823    -6.3026    -0.5767 C.3     
  18 C18           -4.7796    -6.8623     0.0104 C.3     
  19 C19           -2.2865    -6.9405     0.1324 C.3     
  20 C20           -0.9859    -6.4501    -0.5227 C.3     
  21 C21            0.0186    -2.0690    -1.2160 C.ar    
  22 C22           -0.0057    -0.6904    -1.2049 C.ar    
  23 H23            0.8616     1.7598     0.0033 H       
  24 H24            0.0245    -0.1666     2.1387 H       
  25 H25            0.0591    -2.6252     2.1305 H       
  26 H26            2.5717    -4.2547    -1.0134 H       
  27 H27            4.5239    -5.4637    -0.1339 H       
  28 H28            5.0348    -6.5119     2.6251 H       
  29 H29            2.1191    -7.0784     3.0105 H       
  30 H30            0.1633    -5.8652     2.1450 H       
  31 H31           -2.1165    -3.1493    -0.8341 H       
  32 H32           -2.2550    -4.3648    -2.1316 H       
  33 H33           -3.4314    -4.5543     0.6805 H       
  34 H34           -4.3375    -4.3429    -0.8372 H       
  35 H35           -3.4380    -6.5340    -1.6409 H       
  36 H36           -5.6323    -6.4130    -0.4986 H       
  37 H37           -4.8034    -7.9434    -0.1260 H       
  38 H38           -4.8272    -6.6292     1.0741 H       
  39 H39           -2.2953    -6.6583     1.1852 H       
  40 H40           -2.3491    -8.0253     0.0463 H       
  41 H41           -0.9350    -6.8042    -1.5523 H       
  42 H42           -0.1289    -6.8227     0.0384 H       
  43 H43            0.0173    -2.6022    -2.1552 H       
  44 H44           -0.0268    -0.1437    -2.1362 H       
@<TRIPOS>BOND
   1    1    2 1
   2    1   23 1
   3    2    3 ar
   4    2   22 ar
   5    3    4 ar
   6    3   24 1
   7    4   25 1
   8    4    5 ar
   9    5    6 1
  10    5   21 ar
  11    6    7 1
  12    6   14 2
  13    7    8 ar
  14    7   13 ar
  15    8    9 ar
  16    8   26 1
  17    9   27 1
  18    9   10 ar
  19   10   11 1
  20   10   12 ar
  21   11   28 1
  22   12   29 1
  23   12   13 ar
  24   13   30 1
  25   14   20 1
  26   14   15 1
  27   15   16 1
  28   15   31 1
  29   15   32 1
  30   16   17 1
  31   16   33 1
  32   16   34 1
  33   17   19 1
  34   17   18 1
  35   17   35 1
  36   18   36 1
  37   18   37 1
  38   18   38 1
  39   19   39 1
  40   19   40 1
  41   19   20 1
  42   20   41 1
  43   20   42 1
  44   21   43 1
  45   21   22 ar
  46   22   44 1

#	End of record

