#	Name: ASD01810946
#	Creating user name:	WinNT
#	Creation time:	15. 06. 2019 19:25

#	Modifying user name:	WinNT
#	Modification time:	15. 06. 2019 19:25

#	Program:	/corina/corina34_cracker 3.40 0067  02.08.2006

@<TRIPOS>MOLECULE
ASD01810946
  43   45    0    0    0
SMALL
NO_CHARGES


@<TRIPOS>ATOM
   1 C1            -0.2028     1.4840     0.3916 C.2     
   2 C2            -0.2006     0.0130     0.2543 C.ar    
   3 C3             1.0094    -0.6805     0.1669 C.ar    
   4 C4             1.0126    -2.0548     0.0391 C.ar    
   5 C5            -0.1781    -2.7536    -0.0034 C.ar    
   6 C6            -1.3941    -2.0733     0.0828 C.ar    
   7 C7            -1.4052    -0.6871     0.2173 C.ar    
   8 O8             0.8450     2.0827     0.5296 O.2     
   9 O9            -1.3665     2.1618     0.3582 O.3     
  10 C10            2.3133     0.0737     0.2120 C.3     
  11 N11           -4.0541    -4.4354    -0.0147 N.2     
  12 N12           -2.8060    -4.1310     0.0284 N.2     
  13 C13           -2.6683    -2.8239     0.0370 C.2     
  14 N14           -3.9273    -2.2890    -0.0039 N.pl3   
  15 C15           -4.7796    -3.3494    -0.0359 C.2     
  16 C16           -6.2842    -3.2830    -0.0865 C.3     
  17 C17           -6.7899    -4.0841    -1.2880 C.3     
  18 C18           -0.1645    -4.2540    -0.1437 C.3     
  19 C19           -0.2902    -4.8966     1.2391 C.3     
  20 C20           -0.3965    -6.4302     1.1983 C.3     
  21 C21            0.5225    -6.4482     2.4312 C.3     
  22 C22            1.0576    -5.0876     1.9545 C.3     
  23 H23            1.9504    -2.5862    -0.0284 H       
  24 H24           -2.3432    -0.1566     0.2888 H       
  25 H25           -1.3175     3.1230     0.4522 H       
  26 H26            2.5870     0.2646     1.2496 H       
  27 H27            3.0928    -0.5195    -0.2662 H       
  28 H28            2.2032     1.0215    -0.3150 H       
  29 H29           -4.1635    -1.3482    -0.0087 H       
  30 H30           -6.6975    -3.7033     0.8303 H       
  31 H31           -6.5990    -2.2440    -0.1841 H       
  32 H32           -7.8783    -4.0360    -1.3246 H       
  33 H33           -6.3766    -3.6638    -2.2049 H       
  34 H34           -6.4752    -5.1231    -1.1904 H       
  35 H35           -1.0011    -4.5681    -0.7677 H       
  36 H36            0.7715    -4.5672    -0.6062 H       
  37 H37           -1.0515    -4.4225     1.8586 H       
  38 H38           -1.4010    -6.8037     1.3970 H       
  39 H39            0.0541    -6.8757     0.3114 H       
  40 H40           -0.0157    -6.3983     3.3777 H       
  41 H41            1.2681    -7.2429     2.4085 H       
  42 H42            1.9057    -5.1660     1.2742 H       
  43 H43            1.2270    -4.3772     2.7636 H       
@<TRIPOS>BOND
   1    1    2 1
   2    1    8 2
   3    1    9 1
   4    2    3 ar
   5    2    7 ar
   6    3    4 ar
   7    3   10 1
   8    4    5 ar
   9    4   23 1
  10    5    6 ar
  11    5   18 1
  12    6    7 ar
  13    6   13 1
  14    7   24 1
  15    9   25 1
  16   10   26 1
  17   10   27 1
  18   10   28 1
  19   11   12 1
  20   11   15 2
  21   12   13 2
  22   13   14 1
  23   14   15 1
  24   14   29 1
  25   15   16 1
  26   16   17 1
  27   16   30 1
  28   16   31 1
  29   17   32 1
  30   17   33 1
  31   17   34 1
  32   18   19 1
  33   18   35 1
  34   18   36 1
  35   19   20 1
  36   19   22 1
  37   19   37 1
  38   20   21 1
  39   20   38 1
  40   20   39 1
  41   21   22 1
  42   21   40 1
  43   21   41 1
  44   22   42 1
  45   22   43 1

#	End of record

