#	Name: ASD02500411
#	Creating user name:	WinNT
#	Creation time:	15. 06. 2019 20:22

#	Modifying user name:	WinNT
#	Modification time:	15. 06. 2019 20:22

#	Program:	/corina/corina34_cracker 3.40 0067  02.08.2006

@<TRIPOS>MOLECULE
ASD02500411
  67   71    0    0    0
SMALL
NO_CHARGES


@<TRIPOS>ATOM
   1 N1             0.7912     4.1581    -1.4795 N.ar    
   2 C2             1.8992     3.9923    -0.7990 C.ar    
   3 C3             3.0374     3.4329    -1.3761 C.ar    
   4 C4             3.0159     3.0407    -2.6841 C.ar    
   5 C5             1.8240     3.2198    -3.4117 C.ar    
   6 C6             1.7266     2.8414    -4.7601 C.ar    
   7 C7             0.5561     3.0315    -5.4295 C.ar    
   8 C8            -0.5470     3.5973    -4.7941 C.ar    
   9 C9            -0.4876     3.9757    -3.4880 C.ar    
  10 C10            0.7032     3.7956    -2.7632 C.ar    
  11 S11           -1.8976     4.6895    -2.7090 S.o2    
  12 O12           -1.4449     5.8734    -2.0667 O.2     
  13 O13           -2.9385     4.6796    -3.6764 O.2     
  14 N14           -2.3686     3.6550    -1.5047 N.am    
  15 C15           -2.7444     2.3526    -1.8145 C.ar    
  16 C16           -2.2578     1.2905    -1.0574 C.ar    
  17 C17           -2.6278     0.0004    -1.3615 C.ar    
  18 C18           -3.4934    -0.2430    -2.4319 C.ar    
  19 C19           -3.9803     0.8257    -3.1902 C.ar    
  20 C20           -3.6110     2.1139    -2.8776 C.ar    
  21 C21           -3.8917    -1.6248    -2.7609 C.2     
  22 O22           -5.0398    -1.8669    -3.0800 O.2     
  23 N23           -2.9831    -2.6188    -2.7077 N.am    
  24 C24           -3.3341    -3.9854    -3.1229 C.3     
  25 C25           -2.2819    -4.4757    -4.1231 C.3     
  26 N26           -0.9445    -4.3300    -3.5330 N.3     
  27 C27           -0.6297    -2.9198    -3.2682 C.3     
  28 C28           -1.6125    -2.3644    -2.2387 C.3     
  29 C29            0.0784    -4.9461    -4.3886 C.3     
  30 C30            1.4629    -4.7017    -3.7849 C.3     
  31 C31            1.5526    -5.3877    -2.4203 C.3     
  32 C32            2.5173    -5.2665    -4.7015 C.ar    
  33 C33            3.4831    -4.4360    -5.2386 C.ar    
  34 C34            4.4504    -4.9541    -6.0794 C.ar    
  35 C35            4.4521    -6.3028    -6.3827 C.ar    
  36 C36            3.4868    -7.1334    -5.8449 C.ar    
  37 C37            2.5222    -6.6161    -5.0007 C.ar    
  38 H38            1.9309     4.2979     0.2364 H       
  39 H39            3.9359     3.3099    -0.7897 H       
  40 H40            3.8890     2.6056    -3.1476 H       
  41 H41            2.5752     2.4024    -5.2637 H       
  42 H42            0.4821     2.7400    -6.4668 H       
  43 H43           -1.4640     3.7384    -5.3468 H       
  44 H44           -2.3823     3.9575    -0.5832 H       
  45 H45           -1.5888     1.4791    -0.2308 H       
  46 H46           -2.2497    -0.8232    -0.7740 H       
  47 H47           -4.6489     0.6408    -4.0180 H       
  48 H48           -3.9906     2.9403    -3.4601 H       
  49 H49           -3.3453    -4.6411    -2.2522 H       
  50 H50           -4.3162    -3.9836    -3.5959 H       
  51 H51           -2.4637    -5.5246    -4.3575 H       
  52 H52           -2.3433    -3.8827    -5.0357 H       
  53 H53            0.3867    -2.8402    -2.8826 H       
  54 H54           -0.7142    -2.3485    -4.1927 H       
  55 H55           -1.4568    -1.2914    -2.1274 H       
  56 H56           -1.4549    -2.8613    -1.2814 H       
  57 H57           -0.1036    -6.0186    -4.4577 H       
  58 H58            0.0331    -4.5050    -5.3843 H       
  59 H59            1.6225    -3.6302    -3.6641 H       
  60 H60            1.3930    -6.4592    -2.5411 H       
  61 H61            2.5390    -5.2136    -1.9903 H       
  62 H62            0.7900    -4.9792    -1.7574 H       
  63 H63            3.4818    -3.3824    -5.0016 H       
  64 H64            5.2045    -4.3052    -6.4995 H       
  65 H65            5.2073    -6.7074    -7.0402 H       
  66 H66            3.4880    -8.1870    -6.0822 H       
  67 H67            1.7702    -7.2657    -4.5776 H       
@<TRIPOS>BOND
   1    1    2 ar
   2    1   10 ar
   3    2    3 ar
   4    2   38 1
   5    3    4 ar
   6    3   39 1
   7    4    5 ar
   8    4   40 1
   9    5    6 ar
  10    5   10 ar
  11    6    7 ar
  12    6   41 1
  13    7    8 ar
  14    7   42 1
  15    8    9 ar
  16    8   43 1
  17    9   10 ar
  18    9   11 1
  19   11   12 2
  20   11   13 2
  21   11   14 am
  22   14   15 1
  23   14   44 1
  24   15   16 ar
  25   15   20 ar
  26   16   17 ar
  27   16   45 1
  28   17   18 ar
  29   17   46 1
  30   18   19 ar
  31   18   21 1
  32   19   20 ar
  33   19   47 1
  34   20   48 1
  35   21   22 2
  36   21   23 am
  37   23   24 1
  38   23   28 1
  39   24   25 1
  40   24   49 1
  41   24   50 1
  42   25   26 1
  43   25   51 1
  44   25   52 1
  45   26   27 1
  46   26   29 1
  47   27   28 1
  48   27   53 1
  49   27   54 1
  50   28   55 1
  51   28   56 1
  52   29   30 1
  53   29   57 1
  54   29   58 1
  55   30   31 1
  56   30   32 1
  57   30   59 1
  58   31   60 1
  59   31   61 1
  60   31   62 1
  61   32   33 ar
  62   32   37 ar
  63   33   34 ar
  64   33   63 1
  65   34   35 ar
  66   34   64 1
  67   35   36 ar
  68   35   65 1
  69   36   37 ar
  70   36   66 1
  71   37   67 1

#	End of record

