#	Name: ASD01913185
#	Creating user name:	WinNT
#	Creation time:	15. 06. 2019 20:01

#	Modifying user name:	WinNT
#	Modification time:	15. 06. 2019 20:01

#	Program:	/corina/corina34_cracker 3.40 0067  02.08.2006

@<TRIPOS>MOLECULE
ASD01913185
  55   59    0    0    0
SMALL
NO_CHARGES


@<TRIPOS>ATOM
   1 C1            -0.3281     1.5224     0.3655 C.3     
   2 N2            -0.6574     0.0931     0.3858 N.am    
   3 C3            -0.2501    -0.6769     1.5729 C.3     
   4 C4             1.2766    -0.6746     1.6326 C.3     
   5 C5             1.8190     0.7156     1.4290 C.ar    
   6 C6             3.1162     0.9701     1.8578 C.ar    
   7 C7             3.6772     2.2192     1.6935 C.ar    
   8 C8             2.9450     3.2287     1.0965 C.ar    
   9 C9             1.6558     2.9800     0.6732 C.ar    
  10 C10            1.0887     1.7239     0.8415 C.ar    
  11 C11           -0.4646     2.0486    -1.0401 C.2     
  12 C12           -1.2605     3.0525    -1.4115 C.2     
  13 C13           -1.2188     3.3616    -2.7601 C.2     
  14 C14           -0.3890     2.6087    -3.4839 C.2     
  15 S15            0.4070     1.4378    -2.4404 S.3     
  16 C16           -1.3067    -0.4915    -0.6404 C.2     
  17 C17           -1.4987    -1.9552    -0.6545 C.ar    
  18 C18           -2.5977    -2.5080    -1.3107 C.ar    
  19 C19           -2.7732    -3.8899    -1.3210 C.ar    
  20 C20           -1.8416    -4.7158    -0.6703 C.ar    
  21 C21           -0.7520    -4.1545    -0.0202 C.ar    
  22 C22           -0.5750    -2.7879    -0.0147 C.ar    
  23 O23           -1.7345     0.1866    -1.5544 O.2     
  24 C24           -3.8993    -4.4664    -1.9920 C.1     
  25 C25           -4.8225    -4.9390    -2.5421 C.1     
  26 C26           -5.9486    -5.5154    -3.2131 C.ar    
  27 C27           -6.1174    -6.9029    -3.2188 C.ar    
  28 C28           -7.2101    -7.4433    -3.8713 C.ar    
  29 C29           -8.1013    -6.5824    -4.4984 C.ar    
  30 C30           -7.8746    -5.2191    -4.4542 C.ar    
  31 N31           -6.8292    -4.7266    -3.8218 N.ar    
  32 O32           -2.0076    -6.0617    -0.6772 O.3     
  33 C33           -1.0220    -6.8403     0.0042 C.3     
  34 H34           -1.0114     2.0614     1.0218 H       
  35 H35           -0.6551    -0.2113     2.4714 H       
  36 H36           -0.6144    -1.7010     1.4910 H       
  37 H37            1.5979    -1.0457     2.6059 H       
  38 H38            1.6669    -1.3294     0.8535 H       
  39 H39            3.6900     0.1829     2.3241 H       
  40 H40            4.6856     2.4084     2.0306 H       
  41 H41            3.3804     4.2080     0.9625 H       
  42 H42            1.0832     3.7685     0.2076 H       
  43 H43           -1.8900     3.5836    -0.7130 H       
  44 H44           -1.8133     4.1522    -3.1935 H       
  45 H45           -0.2278     2.7057    -4.5474 H       
  46 H46           -3.3103    -1.8672    -1.8086 H       
  47 H47           -0.0373    -4.7915     0.4796 H       
  48 H48            0.2780    -2.3579     0.4891 H       
  49 H49           -5.4045    -7.5435    -2.7211 H       
  50 H50           -7.3669    -8.5117    -3.8931 H       
  51 H51           -8.9640    -6.9744    -5.0165 H       
  52 H52           -8.5667    -4.5483    -4.9414 H       
  53 H53           -0.0448    -6.6634    -0.4451 H       
  54 H54           -0.9958    -6.5539     1.0556 H       
  55 H55           -1.2737    -7.8977    -0.0781 H       
@<TRIPOS>BOND
   1    1    2 1
   2    1   10 1
   3    1   11 1
   4    1   34 1
   5    2    3 1
   6    2   16 am
   7    3    4 1
   8    3   35 1
   9    3   36 1
  10    4    5 1
  11    4   37 1
  12    4   38 1
  13    5    6 ar
  14    5   10 ar
  15    6    7 ar
  16    6   39 1
  17    7    8 ar
  18    7   40 1
  19    8    9 ar
  20    8   41 1
  21    9   10 ar
  22    9   42 1
  23   11   12 2
  24   11   15 1
  25   12   13 1
  26   12   43 1
  27   13   14 2
  28   13   44 1
  29   14   15 1
  30   14   45 1
  31   16   17 1
  32   16   23 2
  33   17   18 ar
  34   17   22 ar
  35   18   19 ar
  36   18   46 1
  37   19   20 ar
  38   19   24 1
  39   20   21 ar
  40   20   32 1
  41   21   22 ar
  42   21   47 1
  43   22   48 1
  44   24   25 3
  45   25   26 1
  46   26   27 ar
  47   26   31 ar
  48   27   28 ar
  49   27   49 1
  50   28   29 ar
  51   28   50 1
  52   29   30 ar
  53   29   51 1
  54   30   31 ar
  55   30   52 1
  56   32   33 1
  57   33   53 1
  58   33   54 1
  59   33   55 1

#	End of record

