#	Name: ASD04880416
#	Creating user name:	WinNT
#	Creation time:	15. 06. 2019 20:53

#	Modifying user name:	WinNT
#	Modification time:	15. 06. 2019 20:53

#	Program:	/corina/corina34_cracker 3.40 0067  02.08.2006

@<TRIPOS>MOLECULE
ASD04880416
  38   40    0    0    0
SMALL
NO_CHARGES


@<TRIPOS>ATOM
   1 C1            -0.0055     1.3688     0.3003 C.ar    
   2 C2             0.0099    -0.0224     0.2666 C.ar    
   3 C3            -1.1736    -0.7247     0.2191 C.ar    
   4 C4            -2.3916    -0.0386     0.2053 C.ar    
   5 C5            -2.4034     1.3590     0.2397 C.ar    
   6 C6            -1.2163     2.0549     0.2920 C.ar    
   7 C7            -3.6601    -0.7867     0.1540 C.2     
   8 N8            -3.7653    -2.0709     0.1194 N.2     
   9 N9            -5.0790    -2.5331     0.0740 N.am    
  10 C10           -5.9905    -1.3778     0.0792 C.3     
  11 C11           -5.0389    -0.1665     0.1404 C.3     
  12 C12           -5.4538    -3.8270     0.0323 C.2     
  13 C13           -4.4329    -4.8884    -0.0943 C.ar    
  14 O14           -6.6317    -4.1213     0.0987 O.2     
  15 C15           -3.0990    -4.5514    -0.3140 C.ar    
  16 C16           -2.1427    -5.5587    -0.4317 C.ar    
  17 C17           -2.5272    -6.8979    -0.3286 C.ar    
  18 C18           -3.8512    -7.2245    -0.1112 C.ar    
  19 C19           -4.8025    -6.2317     0.0120 C.ar    
  20 C20           -0.7694    -5.2216    -0.6581 C.1     
  21 S21            1.5113     2.2634     0.3611 S.3     
  22 C22            0.9642     3.9927     0.3895 C.3     
  23 N23            0.3199    -4.9542    -0.8377 N.1     
  24 H24            0.9512    -0.5518     0.2774 H       
  25 H25           -1.1609    -1.8043     0.1923 H       
  26 H26           -3.3426     1.8922     0.2291 H       
  27 H27           -1.2246     3.1345     0.3186 H       
  28 H28           -6.5872    -1.3560    -0.8327 H       
  29 H29           -6.6334    -1.4004     0.9591 H       
  30 H30           -5.2135     0.4113     1.0479 H       
  31 H31           -5.1611     0.4606    -0.7428 H       
  32 H32           -2.8074    -3.5146    -0.3932 H       
  33 H33           -1.7874    -7.6795    -0.4196 H       
  34 H34           -4.1432    -8.2614    -0.0331 H       
  35 H35           -5.8362    -6.4941     0.1823 H       
  36 H36            1.8341     4.6484     0.4278 H       
  37 H37            0.3876     4.2062    -0.5106 H       
  38 H38            0.3421     4.1626     1.2683 H       
@<TRIPOS>BOND
   1    1    2 ar
   2    1   21 1
   3    1    6 ar
   4    2    3 ar
   5    2   24 1
   6    3    4 ar
   7    3   25 1
   8    4    5 ar
   9    4    7 1
  10    5    6 ar
  11    5   26 1
  12    6   27 1
  13    7    8 2
  14    7   11 1
  15    8    9 1
  16    9   10 1
  17    9   12 am
  18   10   11 1
  19   10   28 1
  20   10   29 1
  21   11   30 1
  22   11   31 1
  23   12   13 1
  24   12   14 2
  25   13   15 ar
  26   13   19 ar
  27   15   16 ar
  28   15   32 1
  29   16   17 ar
  30   16   20 1
  31   17   18 ar
  32   17   33 1
  33   18   19 ar
  34   18   34 1
  35   19   35 1
  36   20   23 3
  37   21   22 1
  38   22   36 1
  39   22   37 1
  40   22   38 1

#	End of record

