#	Name: ASD04882026
#	Creating user name:	WinNT
#	Creation time:	15. 06. 2019 20:53

#	Modifying user name:	WinNT
#	Modification time:	15. 06. 2019 20:53

#	Program:	/corina/corina34_cracker 3.40 0067  02.08.2006

@<TRIPOS>MOLECULE
ASD04882026
  84   88    0    0    0
SMALL
NO_CHARGES


@<TRIPOS>ATOM
   1 C1             1.0152    -0.3240    -1.2353 C.ar    
   2 C2             0.8430    -1.3021    -2.1973 C.ar    
   3 C3             1.8278    -1.5288    -3.1415 C.ar    
   4 C4             2.9869    -0.7785    -3.1264 C.ar    
   5 C5             3.1632     0.2051    -2.1612 C.ar    
   6 C6             2.1722     0.4302    -1.2145 C.ar    
   7 N7             4.3346     0.9656    -2.1427 N.3     
   8 C8             5.1016     0.7216    -0.9131 C.3     
   9 C9             6.4121     1.5103    -0.9675 C.3     
  10 N10            6.1138     2.9408    -1.1236 N.3     
  11 C11            5.3469     3.1848    -2.3532 C.3     
  12 C12            4.0363     2.3961    -2.2988 C.3     
  13 C13            7.2816     3.6990    -1.1051 C.ar    
  14 C14            7.6933     4.3674    -2.2520 C.ar    
  15 C15            8.8482     5.1182    -2.2383 C.ar    
  16 C16            9.6096     5.2098    -1.0703 C.ar    
  17 C17            9.1975     4.5388     0.0849 C.ar    
  18 C18            8.0355     3.7914     0.0687 C.ar    
  19 N19            7.6191     3.1175     1.2241 N.am    
  20 C20            8.5265     2.7307     2.1426 C.2     
  21 C21            8.1031     1.9449     3.3058 C.2     
  22 O22            9.6974     3.0338     2.0064 O.2     
  23 O23            6.8436     1.5436     3.5756 O.3     
  24 C24           10.8469     6.0132    -1.0562 C.2     
  25 N25           11.2435     6.6594    -2.1705 N.am    
  26 O26           11.5089     6.0924    -0.0393 O.2     
  27 C27            8.9154     1.4860     4.3030 C.2     
  28 C28            8.0950     0.7874     5.2025 C.2     
  29 C29            6.8344     0.8468     4.7194 C.2     
  30 C30            4.0596    -1.0266    -4.1553 C.3     
  31 C31           12.4722     7.4571    -2.1566 C.3     
  32 C32           13.6746     6.5490    -2.4326 C.3     
  33 N33           14.8802     7.3814    -2.5441 N.am    
  34 C34           14.8782     8.5040    -3.4920 C.3     
  35 C35           13.6623     9.3903    -3.2041 C.3     
  36 C36           12.3933     8.5356    -3.2395 C.3     
  37 C37           15.9670     7.1204    -1.7911 C.2     
  38 O38           17.0650     7.8914    -1.9036 O.3     
  39 O39           15.9559     6.1892    -1.0105 O.2     
  40 C40           18.1981     7.5519    -1.0615 C.3     
  41 C41           18.6610     6.1285    -1.3789 C.3     
  42 C42           19.3428     8.5316    -1.3273 C.3     
  43 C43           17.7845     7.6376     0.4090 C.3     
  44 H44            0.2423    -0.1464    -0.5022 H       
  45 H45           -0.0625    -1.8906    -2.2112 H       
  46 H46            1.6903    -2.2939    -3.8913 H       
  47 H47            2.3061     1.1941    -0.4628 H       
  48 H48            4.5184     1.0444    -0.0507 H       
  49 H49            5.3209    -0.3426    -0.8265 H       
  50 H50            6.9694     1.3537    -0.0439 H       
  51 H51            7.0074     1.1684    -1.8142 H       
  52 H52            5.1275     4.2490    -2.4398 H       
  53 H53            5.9300     2.8620    -3.2156 H       
  54 H54            3.4791     2.5527    -3.2223 H       
  55 H55            3.4411     2.7380    -1.4521 H       
  56 H56            7.1066     4.2977    -3.1561 H       
  57 H57            9.1656     5.6362    -3.1313 H       
  58 H58            9.7842     4.6075     0.9891 H       
  59 H59            6.6778     2.9292     1.3631 H       
  60 H60           10.7155     6.5962    -2.9817 H       
  61 H61            9.9825     1.6320     4.3837 H       
  62 H62            8.4121     0.2930     6.1088 H       
  63 H63            5.9629     0.4056     5.1801 H       
  64 H64            3.8326    -0.4629    -5.0601 H       
  65 H65            5.0235    -0.7062    -3.7598 H       
  66 H66            4.0988    -2.0903    -4.3902 H       
  67 H67           12.5888     7.9286    -1.1807 H       
  68 H68           13.7939     5.8412    -1.6122 H       
  69 H69           13.5170     6.0073    -3.3652 H       
  70 H70           15.7917     9.0863    -3.3706 H       
  71 H71           14.8187     8.1218    -4.5110 H       
  72 H72           13.7680     9.8440    -2.2186 H       
  73 H73           13.5952    10.1727    -3.9600 H       
  74 H74           12.3013     8.0625    -4.2172 H       
  75 H75           11.5242     9.1683    -3.0593 H       
  76 H76           18.9556     6.0674    -2.4266 H       
  77 H77           19.5116     5.8736    -0.7468 H       
  78 H78           17.8455     5.4305    -1.1896 H       
  79 H79           19.0130     9.5456    -1.1012 H       
  80 H80           20.1934     8.2767    -0.6952 H       
  81 H81           19.6374     8.4705    -2.3750 H       
  82 H82           16.9690     6.9396     0.5984 H       
  83 H83           18.6351     7.3827     1.0412 H       
  84 H84           17.4547     8.6516     0.6352 H       
@<TRIPOS>BOND
   1    1    2 ar
   2    1    6 ar
   3    1   44 1
   4    2    3 ar
   5    2   45 1
   6    3    4 ar
   7    3   46 1
   8    4    5 ar
   9    4   30 1
  10    5    6 ar
  11    5    7 1
  12    6   47 1
  13    7    8 1
  14    7   12 1
  15    8    9 1
  16    8   48 1
  17    8   49 1
  18    9   10 1
  19    9   50 1
  20    9   51 1
  21   10   11 1
  22   10   13 1
  23   11   12 1
  24   11   52 1
  25   11   53 1
  26   12   54 1
  27   12   55 1
  28   13   14 ar
  29   13   18 ar
  30   14   15 ar
  31   14   56 1
  32   15   16 ar
  33   15   57 1
  34   16   17 ar
  35   16   24 1
  36   17   18 ar
  37   17   58 1
  38   18   19 1
  39   19   20 am
  40   19   59 1
  41   20   21 1
  42   20   22 2
  43   21   23 1
  44   21   27 2
  45   23   29 1
  46   24   25 am
  47   24   26 2
  48   25   31 1
  49   25   60 1
  50   27   28 1
  51   27   61 1
  52   28   29 2
  53   28   62 1
  54   29   63 1
  55   30   64 1
  56   30   65 1
  57   30   66 1
  58   31   32 1
  59   31   36 1
  60   31   67 1
  61   32   33 1
  62   32   68 1
  63   32   69 1
  64   33   34 1
  65   33   37 am
  66   34   35 1
  67   34   70 1
  68   34   71 1
  69   35   36 1
  70   35   72 1
  71   35   73 1
  72   36   74 1
  73   36   75 1
  74   37   38 1
  75   37   39 2
  76   38   40 1
  77   40   41 1
  78   40   42 1
  79   40   43 1
  80   41   76 1
  81   41   77 1
  82   41   78 1
  83   42   79 1
  84   42   80 1
  85   42   81 1
  86   43   82 1
  87   43   83 1
  88   43   84 1

#	End of record

