#	Name: ASD06620016
#	Creating user name:	WinNT
#	Creation time:	15. 06. 2019 21:07

#	Modifying user name:	WinNT
#	Modification time:	15. 06. 2019 21:07

#	Program:	/corina/corina34_cracker 3.40 0067  02.08.2006

@<TRIPOS>MOLECULE
ASD06620016
  49   53    0    0    0
SMALL
NO_CHARGES


@<TRIPOS>ATOM
   1 C1            -0.7748    -3.5001    -0.5171 C.ar    
   2 C2            -0.3182    -2.2174    -0.2695 C.ar    
   3 C3             1.0614    -1.9841    -0.2217 C.ar    
   4 C4             1.9230    -3.0545    -0.4255 C.ar    
   5 C5             1.3867    -4.3036    -0.6667 C.ar    
   6 N6             0.0798    -4.4884    -0.7051 N.ar    
   7 C7             0.0181    -0.0627     0.1453 C.2     
   8 N8            -0.9384    -0.9939    -0.0357 N.am    
   9 N9             1.2336    -0.6338     0.0382 N.am    
  10 O10           -0.1849     1.1157     0.3707 O.2     
  11 C11           -2.3838    -0.7587     0.0058 C.3     
  12 C12           -3.6491    -0.9609    -3.3826 C.2     
  13 C13           -4.1158    -1.4925    -4.6013 C.2     
  14 N14           -3.5565     0.4032    -3.2481 N.pl3   
  15 N15           -4.4508    -0.6832    -5.5773 N.2     
  16 C16           -4.3598     0.6421    -5.4434 C.2     
  17 C17           -3.9187     1.2016    -4.2967 C.2     
  18 N18           -3.2426    -1.5114    -2.2502 N.2     
  19 C19           -2.8990    -0.5481    -1.3946 C.2     
  20 C20           -3.0859     0.6511    -1.9961 C.2     
  21 C21           -2.8201     2.0060    -1.3921 C.3     
  22 C22           -4.1206     2.5729    -0.8191 C.3     
  23 C23           -3.8507     3.9485    -0.2060 C.3     
  24 C24           -5.1512     4.5154     0.3671 C.3     
  25 F25           -4.9044     5.7732     0.9277 F       
  26 C26            2.5191     0.0555     0.1743 C.3     
  27 C27            2.8169     1.1945    -0.8029 C.3     
  28 C28            2.4950     1.5061     0.6601 C.3     
  29 H29           -1.8365    -3.6946    -0.5521 H       
  30 H30            2.9932    -2.9121    -0.3961 H       
  31 H31            2.0468    -5.1432    -0.8270 H       
  32 H32           -2.8798    -1.6219     0.4495 H       
  33 H33           -2.5906     0.1274     0.6061 H       
  34 H34           -4.1970    -2.5616    -4.7311 H       
  35 H35           -4.6443     1.2786    -6.2682 H       
  36 H36           -3.8526     2.2760    -4.2081 H       
  37 H37           -2.0831     1.9102    -0.5948 H       
  38 H38           -2.4384     2.6779    -2.1609 H       
  39 H39           -4.8576     2.6688    -1.6164 H       
  40 H40           -4.5022     1.9010    -0.0504 H       
  41 H41           -3.1137     3.8526     0.5914 H       
  42 H42           -3.4691     4.6204    -0.9747 H       
  43 H43           -5.8882     4.6113    -0.4303 H       
  44 H44           -5.5328     3.8435     1.1358 H       
  45 H45            3.3555    -0.5678     0.4907 H       
  46 H46            3.8493     1.3209    -1.1290 H       
  47 H47            2.0563     1.4310    -1.5469 H       
  48 H48            1.5227     1.9476     0.8785 H       
  49 H49            3.3156     1.8375     1.2964 H       
@<TRIPOS>BOND
   1    1    2 ar
   2    1    6 ar
   3    1   29 1
   4    2    3 ar
   5    2    8 1
   6    3    4 ar
   7    3    9 1
   8    4    5 ar
   9    4   30 1
  10    5    6 ar
  11    5   31 1
  12    7    8 am
  13    7    9 am
  14    7   10 2
  15    8   11 1
  16    9   26 1
  17   11   19 1
  18   11   32 1
  19   11   33 1
  20   12   13 1
  21   12   14 1
  22   12   18 2
  23   13   15 2
  24   13   34 1
  25   14   17 1
  26   14   20 1
  27   15   16 1
  28   16   17 2
  29   16   35 1
  30   17   36 1
  31   18   19 1
  32   19   20 2
  33   20   21 1
  34   21   22 1
  35   21   37 1
  36   21   38 1
  37   22   23 1
  38   22   39 1
  39   22   40 1
  40   23   24 1
  41   23   41 1
  42   23   42 1
  43   24   25 1
  44   24   43 1
  45   24   44 1
  46   26   27 1
  47   26   28 1
  48   26   45 1
  49   27   28 1
  50   27   46 1
  51   27   47 1
  52   28   48 1
  53   28   49 1

#	End of record

