#	Name: ASD01915651
#	Creating user name:	WinNT
#	Creation time:	15. 06. 2019 20:05

#	Modifying user name:	WinNT
#	Modification time:	15. 06. 2019 20:05

#	Program:	/corina/corina34_cracker 3.40 0067  02.08.2006

@<TRIPOS>MOLECULE
ASD01915651
  48   51    0    0    0
SMALL
NO_CHARGES


@<TRIPOS>ATOM
   1 C1            -0.1058     1.0752    -0.3514 C.2     
   2 N2            -0.1180    -0.2093     0.1446 N.pl3   
   3 C3            -1.3619    -0.8298     0.6163 C.3     
   4 C4            -2.2920     0.2533     1.1601 C.3     
   5 N5            -2.4044     1.3988     0.2637 N.am    
   6 C6            -1.3270     1.8936    -0.3922 C.2     
   7 C7             1.1796     1.3462    -0.7278 C.2     
   8 C8             1.9002     0.1840    -0.4212 C.2     
   9 N9             1.0640    -0.6863     0.0950 N.2     
  10 C10            3.3750    -0.0294    -0.6456 C.3     
  11 O11            3.9434     1.1458    -1.2269 O.3     
  12 C12            5.2754     1.1193    -1.4949 C.ar    
  13 O13           -1.3675     2.9566    -0.9821 O.2     
  14 C14            5.8928     2.2260    -2.0595 C.ar    
  15 C15            6.0212    -0.0125    -1.1993 C.ar    
  16 C16            7.3751    -0.0371    -1.4728 C.ar    
  17 C17            7.9869     1.0651    -2.0407 C.ar    
  18 C18            7.2469     2.1965    -2.3311 C.ar    
  19 C19           -3.6531     1.9997     0.0768 C.ar    
  20 C20           -4.0456     3.0538     0.8896 C.ar    
  21 C21           -4.5002     1.5459    -0.9268 C.ar    
  22 C22           -5.7334     2.1399    -1.1117 C.ar    
  23 C23           -6.1278     3.1867    -0.3000 C.ar    
  24 C24           -5.2840     3.6473     0.7008 C.ar    
  25 C25           -1.7558     0.7330     2.5104 C.3     
  26 O26           -5.6735     4.6763     1.4984 O.3     
  27 C27           -6.9644     5.2367     1.2504 C.3     
  28 H28           -1.8485    -1.3449    -0.2121 H       
  29 H29           -1.1347    -1.5449     1.4069 H       
  30 H30           -3.2829    -0.1757     1.3093 H       
  31 H31            1.5579     2.2577    -1.1665 H       
  32 H32            3.8616    -0.2349     0.3079 H       
  33 H33            3.5217    -0.8747    -1.3180 H       
  34 H34            5.3151     3.1097    -2.2868 H       
  35 H35            5.5439    -0.8736    -0.7553 H       
  36 H36            7.9562    -0.9178    -1.2425 H       
  37 H37            9.0455     1.0440    -2.2538 H       
  38 H38            7.7270     3.0560    -2.7750 H       
  39 H39           -3.3875     3.4110     1.6679 H       
  40 H40           -4.1941     0.7285    -1.5629 H       
  41 H41           -6.3905     1.7859    -1.8922 H       
  42 H42           -7.0924     3.6496    -0.4475 H       
  43 H43           -0.7530     1.1396     2.3794 H       
  44 H44           -2.4125     1.5068     2.9080 H       
  45 H45           -1.7199    -0.1056     3.2058 H       
  46 H46           -7.1502     6.0472     1.9551 H       
  47 H47           -7.0028     5.6244     0.2324 H       
  48 H48           -7.7250     4.4659     1.3745 H       
@<TRIPOS>BOND
   1    1    2 1
   2    1    7 2
   3    1    6 1
   4    2    3 1
   5    2    9 1
   6    3    4 1
   7    3   28 1
   8    3   29 1
   9    4    5 1
  10    4   25 1
  11    4   30 1
  12    5    6 am
  13    5   19 1
  14    6   13 2
  15    7    8 1
  16    7   31 1
  17    8    9 2
  18    8   10 1
  19   10   11 1
  20   10   32 1
  21   10   33 1
  22   11   12 1
  23   12   14 ar
  24   12   15 ar
  25   14   18 ar
  26   14   34 1
  27   15   16 ar
  28   15   35 1
  29   16   17 ar
  30   16   36 1
  31   17   18 ar
  32   17   37 1
  33   18   38 1
  34   19   20 ar
  35   19   21 ar
  36   20   24 ar
  37   20   39 1
  38   21   22 ar
  39   21   40 1
  40   22   23 ar
  41   22   41 1
  42   23   24 ar
  43   23   42 1
  44   24   26 1
  45   25   43 1
  46   25   44 1
  47   25   45 1
  48   26   27 1
  49   27   46 1
  50   27   47 1
  51   27   48 1

#	End of record

