#	Name: ASD01901597
#	Creating user name:	WinNT
#	Creation time:	15. 06. 2019 19:54

#	Modifying user name:	WinNT
#	Modification time:	15. 06. 2019 19:54

#	Program:	/corina/corina34_cracker 3.40 0067  02.08.2006

@<TRIPOS>MOLECULE
ASD01901597
  45   49    0    0    0
SMALL
NO_CHARGES


@<TRIPOS>ATOM
   1 F1            -0.7311    -1.0217     2.0350 F       
   2 C2            -0.7670     0.3541     1.7839 C.3     
   3 C3            -0.7593     1.2134     3.0592 C.3     
   4 C4             0.7760     1.1841     2.9753 C.3     
   5 C5             0.6105     0.9578     1.4632 C.3     
   6 N6             1.4066     2.4629     3.3117 N.am    
   7 C7             2.6735     2.4894     3.7708 C.2     
   8 O8             3.2928     1.4523     3.9057 O.2     
   9 C9             3.3105     3.7810     4.1107 C.ar    
  10 N10            2.6787     4.9167     3.8682 N.ar    
  11 C11            3.1994     6.0974     4.1508 C.ar    
  12 C12            4.4355     6.2268     4.7172 C.ar    
  13 C13            5.1742     5.0653     5.0073 C.ar    
  14 C14            6.4476     5.1183     5.5882 C.ar    
  15 C15            7.1208     3.9423     5.8483 C.ar    
  16 N16            8.3892     3.9864     6.4266 N.pl3   
  17 C17            9.3188     2.9789     6.1507 C.2     
  18 N18            9.1664     2.0034     5.2949 N.2     
  19 N19           10.3044     1.1903     5.2878 N.pl3   
  20 H20           10.4295     0.4027     4.7355 H       
  21 C21           11.2141     1.6836     6.1854 C.ar    
  22 C22           12.4901     1.2888     6.5859 C.ar    
  23 C23           13.1371     2.0442     7.5440 C.ar    
  24 C24           12.5089     3.1623     8.0766 C.ar    
  25 N25           11.3060     3.5205     7.6887 N.ar    
  26 C26           10.6406     2.8317     6.7646 C.ar    
  27 C27            6.5431     2.7046     5.5379 C.ar    
  28 C28            5.3074     2.6300     4.9733 C.ar    
  29 C29            4.5941     3.8054     4.7010 C.ar    
  30 H30           -1.5430     0.6343     1.0717 H       
  31 H31           -1.1853     2.2069     2.9189 H       
  32 H32           -1.1586     0.7002     3.9340 H       
  33 H33            1.2257     0.3391     3.4966 H       
  34 H34            1.3170     0.2383     1.0495 H       
  35 H35            0.5589     1.8814     0.8866 H       
  36 H36            0.9124     3.2906     3.2041 H       
  37 H37            2.6304     6.9876     3.9268 H       
  38 H38            4.8390     7.2039     4.9383 H       
  39 H39            6.8980     6.0698     5.8297 H       
  40 H40            8.6265     4.7160     7.0202 H       
  41 H41           12.9597     0.4152     6.1585 H       
  42 H42           14.1261     1.7667     7.8774 H       
  43 H43           13.0196     3.7493     8.8256 H       
  44 H44            7.0868     1.7958     5.7495 H       
  45 H45            4.8756     1.6680     4.7399 H       
@<TRIPOS>BOND
   1    1    2 1
   2    2    5 1
   3    2    3 1
   4    2   30 1
   5    3    4 1
   6    3   31 1
   7    3   32 1
   8    4    5 1
   9    4    6 1
  10    4   33 1
  11    5   34 1
  12    5   35 1
  13    6    7 am
  14    6   36 1
  15    7    8 2
  16    7    9 1
  17    9   29 ar
  18    9   10 ar
  19   10   11 ar
  20   11   12 ar
  21   11   37 1
  22   12   13 ar
  23   12   38 1
  24   13   29 ar
  25   13   14 ar
  26   14   15 ar
  27   14   39 1
  28   15   16 1
  29   15   27 ar
  30   16   17 1
  31   16   40 1
  32   17   26 1
  33   17   18 2
  34   18   19 1
  35   19   20 1
  36   19   21 1
  37   21   26 ar
  38   21   22 ar
  39   22   23 ar
  40   22   41 1
  41   23   24 ar
  42   23   42 1
  43   24   25 ar
  44   24   43 1
  45   25   26 ar
  46   27   28 ar
  47   27   44 1
  48   28   29 ar
  49   28   45 1

#	End of record

