#	Name: ASD00311191
#	Creating user name:	WinNT
#	Creation time:	15. 06. 2019 18:34

#	Modifying user name:	WinNT
#	Modification time:	15. 06. 2019 18:34

#	Program:	/corina/corina34_cracker 3.40 0067  02.08.2006

@<TRIPOS>MOLECULE
ASD00311191
  44   48    0    0    0
SMALL
NO_CHARGES


@<TRIPOS>ATOM
   1 C1            -0.0171     1.4131     0.0098 C.ar    
   2 C2             0.0021    -0.0041     0.0020 C.ar    
   3 C3             1.2369    -0.6810    -0.0167 C.ar    
   4 C4             2.4032     0.0882    -0.0247 C.ar    
   5 C5             2.3011     1.4846    -0.0142 C.ar    
   6 N6             1.1371     2.0913     0.0024 N.ar    
   7 N7            -1.1802     2.0752     0.0189 N.ar    
   8 C8            -1.2203    -0.7184     0.0145 C.ar    
   9 C9            -2.4020     0.0308     0.0312 C.ar    
  10 C10           -3.7232    -0.6020     0.0546 C.2     
  11 C11           -4.8491     0.1677     0.7113 C.3     
  12 C12           -4.7568     1.6198     0.3293 C.2     
  13 C13           -3.6091     2.2042     0.0255 C.2     
  14 C14           -2.3415     1.4509     0.0208 C.ar    
  15 O15           -3.9074    -1.6981    -0.4328 O.2     
  16 O16            1.2920    -2.0347    -0.0261 O.3     
  17 C17           -1.2470    -2.1953     0.0095 C.ar    
  18 C18           -0.7357    -2.9095     1.0958 C.ar    
  19 C19           -0.7637    -4.2875     1.0860 C.ar    
  20 C20           -1.2977    -4.9650     0.0003 C.ar    
  21 C21           -1.8061    -4.2613    -1.0808 C.ar    
  22 C22           -1.7890    -2.8830    -1.0791 C.ar    
  23 F23           -1.3222    -6.3157    -0.0042 F       
  24 C24            3.7333    -0.5665    -0.0436 C.ar    
  25 C25            4.5736    -0.4110    -1.1451 C.ar    
  26 C26            5.8105    -1.0221    -1.1582 C.ar    
  27 C27            6.2177    -1.7899    -0.0791 C.ar    
  28 C28            5.3859    -1.9477     1.0176 C.ar    
  29 C29            4.1500    -1.3348     1.0425 C.ar    
  30 F30            7.4296    -2.3868    -0.0966 F       
  31 Cl31           3.7515     2.4385    -0.0228 Cl      
  32 H32           -5.8061    -0.2349     0.3793 H       
  33 H33           -4.7712     0.0715     1.7943 H       
  34 H34           -5.6622     2.2078     0.3016 H       
  35 H35           -3.6006     3.2536    -0.2299 H       
  36 H36            1.2978    -2.4219    -0.9121 H       
  37 H37           -0.3190    -2.3828     1.9416 H       
  38 H38           -0.3687    -4.8407     1.9253 H       
  39 H39           -2.2202    -4.7941    -1.9241 H       
  40 H40           -2.1897    -2.3359    -1.9196 H       
  41 H41            4.2567     0.1867    -1.9869 H       
  42 H42            6.4621    -0.9022    -2.0111 H       
  43 H43            5.7074    -2.5473     1.8563 H       
  44 H44            3.5043    -1.4541     1.9000 H       
@<TRIPOS>BOND
   1    1    2 ar
   2    1    6 ar
   3    1    7 ar
   4    2    3 ar
   5    2    8 ar
   6    3    4 ar
   7    3   16 1
   8    4    5 ar
   9    4   24 1
  10    5    6 ar
  11    5   31 1
  12    7   14 ar
  13    8    9 ar
  14    8   17 1
  15    9   10 1
  16    9   14 ar
  17   10   11 1
  18   10   15 2
  19   11   12 1
  20   11   32 1
  21   11   33 1
  22   12   13 2
  23   12   34 1
  24   13   14 1
  25   13   35 1
  26   16   36 1
  27   17   18 ar
  28   17   22 ar
  29   18   19 ar
  30   18   37 1
  31   19   20 ar
  32   19   38 1
  33   20   21 ar
  34   20   23 1
  35   21   22 ar
  36   21   39 1
  37   22   40 1
  38   24   25 ar
  39   24   29 ar
  40   25   26 ar
  41   25   41 1
  42   26   27 ar
  43   26   42 1
  44   27   28 ar
  45   27   30 1
  46   28   29 ar
  47   28   43 1
  48   29   44 1

#	End of record

