#	Name: ASD03510001
#	Creating user name:	WinNT
#	Creation time:	15. 06. 2019 20:42

#	Modifying user name:	WinNT
#	Modification time:	15. 06. 2019 20:42

#	Program:	/corina/corina34_cracker 3.40 0067  02.08.2006

@<TRIPOS>MOLECULE
ASD03510001
   1    0    0    0    0
SMALL
NO_CHARGES


@<TRIPOS>ATOM
   1 F1             0.0000     0.0000     0.0000 F       
@<TRIPOS>BOND

#	End of record

