#	Name: ASD02508376
#	Creating user name:	WinNT
#	Creation time:	15. 06. 2019 20:24

#	Modifying user name:	WinNT
#	Modification time:	15. 06. 2019 20:24

#	Program:	/corina/corina34_cracker 3.40 0067  02.08.2006

@<TRIPOS>MOLECULE
ASD02508376
  39   41    0    0    0
SMALL
NO_CHARGES


@<TRIPOS>ATOM
   1 C1             0.6248     1.5302     0.6610 C.2     
   2 C2             0.4672     0.1289     0.6615 C.2     
   3 C3             1.6094    -0.4076     0.1884 C.2     
   4 N4             2.4703     0.6128    -0.1058 N.pl3   
   5 C5             1.8576     1.7992     0.1875 C.2     
   6 C6             3.7589     0.4677    -0.6194 C.ar    
   7 C7             4.5471     1.5878    -0.8805 C.ar    
   8 N8             4.2560    -0.7399    -0.8621 N.ar    
   9 C9             5.4742    -0.8817    -1.3473 C.ar    
  10 N10            6.2431     0.1575    -1.6093 N.ar    
  11 C11            5.8178     1.3928    -1.3888 C.ar    
  12 S12            1.9368    -2.1269    -0.0150 S.o2    
  13 O13            1.6578    -2.4304    -1.3749 O.2     
  14 O14            3.1982    -2.3698     0.5925 O.2     
  15 N15            0.8174    -2.9491     0.8868 N.am    
  16 C16            0.7733    -2.7763     2.2721 C.ar    
  17 C17           -0.4439    -2.5737     2.9099 C.ar    
  18 C18            1.8988    -2.6414     4.3854 C.ar    
  19 C19            1.9461    -2.8122     3.0158 C.ar    
  20 C20           -0.4840    -2.4036     4.2799 C.ar    
  21 C21            0.6859    -2.4347     5.0166 C.ar    
  22 C22           -1.8040    -2.1833     4.9727 C.3     
  23 C23            3.1706    -2.6802     5.1930 C.3     
  24 Cl24           6.0824    -2.4795    -1.6489 Cl      
  25 H25           -0.1099     2.2556     0.9778 H       
  26 H26           -0.4087    -0.4151     0.9828 H       
  27 H27            2.2871     2.7820     0.0612 H       
  28 H28            4.1739     2.5833    -0.6907 H       
  29 H29            6.4548     2.2372    -1.6069 H       
  30 H30            0.1924    -3.5508     0.4530 H       
  31 H31           -1.3579    -2.5489     2.3351 H       
  32 H32            2.8936    -2.9739     2.5235 H       
  33 H33            0.6518    -2.3014     6.0878 H       
  34 H34           -2.2271    -3.1451     5.2627 H       
  35 H35           -1.6503    -1.5712     5.8614 H       
  36 H36           -2.4895    -1.6743     4.2951 H       
  37 H37            3.5861    -1.6751     5.2650 H       
  38 H38            2.9546    -3.0565     6.1929 H       
  39 H39            3.8908    -3.3371     4.7053 H       
@<TRIPOS>BOND
   1    1    2 1
   2    1    5 2
   3    1   25 1
   4    2    3 2
   5    2   26 1
   6    3    4 1
   7    3   12 1
   8    4    5 1
   9    4    6 1
  10    5   27 1
  11    6    7 ar
  12    6    8 ar
  13    7   11 ar
  14    7   28 1
  15    8    9 ar
  16    9   10 ar
  17    9   24 1
  18   10   11 ar
  19   11   29 1
  20   12   13 2
  21   12   14 2
  22   12   15 am
  23   15   16 1
  24   15   30 1
  25   16   17 ar
  26   16   19 ar
  27   17   20 ar
  28   17   31 1
  29   18   19 ar
  30   18   23 1
  31   18   21 ar
  32   19   32 1
  33   20   21 ar
  34   20   22 1
  35   21   33 1
  36   22   34 1
  37   22   35 1
  38   22   36 1
  39   23   37 1
  40   23   38 1
  41   23   39 1

#	End of record

