#	Name: ASD03330061
#	Creating user name:	WinNT
#	Creation time:	15. 06. 2019 20:36

#	Modifying user name:	WinNT
#	Modification time:	15. 06. 2019 20:36

#	Program:	/corina/corina34_cracker 3.40 0067  02.08.2006

@<TRIPOS>MOLECULE
ASD03330061
  71   75    0    0    0
SMALL
NO_CHARGES


@<TRIPOS>ATOM
   1 C1             0.1310     1.4727     0.0111 C.2     
   2 C2             0.0248     0.2593     0.6220 C.2     
   3 C3             1.3303     2.1209     0.2214 C.2     
   4 C4             2.2166     1.4286     1.0147 C.2     
   5 S5             1.4993    -0.0983     1.5093 S.3     
   6 C6             3.5641     1.8963     1.3920 C.ar    
   7 C7             3.9681     1.8682     2.7304 C.ar    
   8 C8             4.4440     2.3639     0.4132 C.ar    
   9 C9             5.7022     2.7997     0.7723 C.ar    
  10 C10            6.0949     2.7744     2.1002 C.ar    
  11 C11            5.2301     2.3073     3.0759 C.ar    
  12 Cl12           7.6810     3.3240     2.5427 Cl      
  13 C13            1.6387     3.4500    -0.3585 C.ar    
  14 C14            1.5482     3.6496    -1.7354 C.ar    
  15 C15            2.0143     4.5048     0.4725 C.ar    
  16 C16            2.3001     5.7401    -0.0702 C.ar    
  17 C17            2.2136     5.9341    -1.4420 C.ar    
  18 C18            1.8353     4.8874    -2.2716 C.ar    
  19 C19           -1.1464    -0.6184     0.5499 C.2     
  20 O20           -2.2657    -0.1480     0.6363 O.2     
  21 O21            2.4955     7.1528    -1.9735 O.3     
  22 N22           -0.9843    -1.9465     0.3878 N.am    
  23 C23           -2.1477    -2.8270     0.2140 C.3     
  24 C24            0.3594    -2.5406     0.3753 C.3     
  25 C25            0.5195    -3.3711    -0.9020 C.3     
  26 C26           -0.6191    -4.3900    -0.9892 C.3     
  27 C27           -1.9543    -3.6537    -1.0611 C.3     
  28 C28           -0.4459    -5.2317    -2.2272 C.ar    
  29 C29           -1.3765    -5.1608    -3.2470 C.ar    
  30 C30           -1.2176    -5.9328    -4.3826 C.ar    
  31 C31           -0.1279    -6.7754    -4.4986 C.ar    
  32 C32            0.8031    -6.8457    -3.4793 C.ar    
  33 C33            0.6466    -6.0704    -2.3455 C.ar    
  34 C34           -0.5931    -5.2775     0.2285 C.2     
  35 N35           -1.5896    -6.1597     0.4408 N.am    
  36 O36            0.3245    -5.1977     1.0175 O.2     
  37 Cl37           2.8850     1.2829     3.9543 Cl      
  38 C38            2.3866     7.2826    -3.3924 C.3     
  39 C39            2.7394     8.7139    -3.8022 C.3     
  40 C40            2.6228     8.8529    -5.3214 C.3     
  41 O41            2.9524    10.1897    -5.7041 O.3     
  42 H42           -0.6596     1.8918    -0.5937 H       
  43 H43            4.1398     2.3837    -0.6229 H       
  44 H44            6.3831     3.1614     0.0161 H       
  45 H45            5.5425     2.2902     4.1096 H       
  46 H46            1.2539     2.8357    -2.3814 H       
  47 H47            2.0810     4.3547     1.5399 H       
  48 H48            2.5910     6.5575     0.5729 H       
  49 H49            1.7691     5.0416    -3.3385 H       
  50 H50           -2.2329    -3.4935     1.0722 H       
  51 H51           -3.0518    -2.2246     0.1254 H       
  52 H52            1.1089    -1.7494     0.3931 H       
  53 H53            0.4828    -3.1834     1.2470 H       
  54 H54            0.4862    -2.7131    -1.7703 H       
  55 H55            1.4752    -3.8947    -0.8781 H       
  56 H56           -2.7648    -4.3774    -1.1469 H       
  57 H57           -1.9604    -2.9953    -1.9298 H       
  58 H58           -2.2278    -4.5024    -3.1563 H       
  59 H59           -1.9450    -5.8779    -5.1790 H       
  60 H60           -0.0042    -7.3792    -5.3855 H       
  61 H61            1.6543    -7.5043    -3.5698 H       
  62 H62            1.3740    -6.1253    -1.5491 H       
  63 H63           -2.2848    -6.2757    -0.2256 H       
  64 H64           -1.6116    -6.6787     1.2600 H       
  65 H65            3.0732     6.5869    -3.8747 H       
  66 H66            1.3655     7.0578    -3.7005 H       
  67 H67            2.0528     9.4096    -3.3199 H       
  68 H68            3.7605     8.9388    -3.4940 H       
  69 H69            3.3094     8.1572    -5.8036 H       
  70 H70            1.6017     8.6280    -5.6295 H       
  71 H71            2.8997    10.3506    -6.6561 H       
@<TRIPOS>BOND
   1    1    2 2
   2    1    3 1
   3    1   42 1
   4    2   19 1
   5    2    5 1
   6    3    4 2
   7    3   13 1
   8    4    5 1
   9    4    6 1
  10    6    7 ar
  11    6    8 ar
  12    7   37 1
  13    7   11 ar
  14    8    9 ar
  15    8   43 1
  16    9   10 ar
  17    9   44 1
  18   10   11 ar
  19   10   12 1
  20   11   45 1
  21   13   14 ar
  22   13   15 ar
  23   14   18 ar
  24   14   46 1
  25   15   16 ar
  26   15   47 1
  27   16   17 ar
  28   16   48 1
  29   17   18 ar
  30   17   21 1
  31   18   49 1
  32   19   20 2
  33   19   22 am
  34   21   38 1
  35   22   23 1
  36   22   24 1
  37   23   27 1
  38   23   50 1
  39   23   51 1
  40   24   25 1
  41   24   52 1
  42   24   53 1
  43   25   26 1
  44   25   54 1
  45   25   55 1
  46   26   27 1
  47   26   28 1
  48   26   34 1
  49   27   56 1
  50   27   57 1
  51   28   29 ar
  52   28   33 ar
  53   29   30 ar
  54   29   58 1
  55   30   31 ar
  56   30   59 1
  57   31   32 ar
  58   31   60 1
  59   32   33 ar
  60   32   61 1
  61   33   62 1
  62   34   35 am
  63   34   36 2
  64   35   63 1
  65   35   64 1
  66   38   39 1
  67   38   65 1
  68   38   66 1
  69   39   40 1
  70   39   67 1
  71   39   68 1
  72   40   41 1
  73   40   69 1
  74   40   70 1
  75   41   71 1

#	End of record

