#	Name: ASD00060052
#	Creating user name:	WinNT
#	Creation time:	15. 06. 2019 18:29

#	Modifying user name:	WinNT
#	Modification time:	15. 06. 2019 18:29

#	Program:	/corina/corina34_cracker 3.40 0067  02.08.2006

@<TRIPOS>MOLECULE
ASD00060052
  45   47    0    0    0
SMALL
NO_CHARGES


@<TRIPOS>ATOM
   1 C1             0.2928    -0.2107    -2.0332 C.ar    
   2 C2             0.7095    -0.5835    -3.2969 C.ar    
   3 C3             1.9735    -0.2382    -3.7383 C.ar    
   4 C4             2.8212     0.4795    -2.9157 C.ar    
   5 C5             2.4057     0.8527    -1.6512 C.ar    
   6 C6             1.1408     0.5083    -1.2094 C.ar    
   7 C7             3.3304     1.6344    -0.7541 C.3     
   8 C8             4.1724     2.5874    -1.6034 C.3     
   9 C9             5.2566     3.2091    -0.7149 C.3     
  10 C10            6.2392     2.1081    -0.3085 C.3     
  11 C11            5.4857     0.9147     0.2048 C.2     
  12 N12            4.1878     0.7099    -0.0229 N.am    
  13 C13            3.2934     3.6752    -2.1646 C.2     
  14 O14            3.5319     4.1648    -3.3914 O.3     
  15 O15            2.3739     4.1067    -1.5102 O.2     
  16 C16            3.5860    -0.5216     0.4942 C.3     
  17 O17            6.0899     0.0932     0.8612 O.2     
  18 C18            3.7333    -1.6361    -0.5436 C.3     
  19 C19            3.7518    -3.8044     0.7067 C.ar    
  20 C20            3.1232    -4.9468     1.1651 C.ar    
  21 C21            1.7892    -5.1667     0.8725 C.ar    
  22 C22            1.0850    -4.2431     0.1213 C.ar    
  23 C23            1.7145    -3.1012    -0.3371 C.ar    
  24 C24            3.0475    -2.8816    -0.0440 C.ar    
  25 Br25           0.9288    -6.7298     1.4989 Br      
  26 Cl26           0.6179     0.9775     0.3781 Cl      
  27 H27           -0.6962    -0.4766    -1.6902 H       
  28 H28            0.0478    -1.1450    -3.9398 H       
  29 H29            2.2987    -0.5298    -4.7260 H       
  30 H30            3.8086     0.7487    -3.2608 H       
  31 H31            2.7395     2.2120    -0.0431 H       
  32 H32            4.6399     2.0348    -2.4184 H       
  33 H33            5.7842     3.9856    -1.2688 H       
  34 H34            4.7989     3.6396     0.1758 H       
  35 H35            6.8339     1.8159    -1.1740 H       
  36 H36            6.8998     2.4828     0.4733 H       
  37 H37            2.9412     4.8617    -3.7085 H       
  38 H38            4.0906    -0.8137     1.4152 H       
  39 H39            2.5286    -0.3518     0.6974 H       
  40 H40            3.2767    -1.3215    -1.4820 H       
  41 H41            4.7910    -1.8440    -0.7059 H       
  42 H42            4.7921    -3.6304     0.9388 H       
  43 H43            3.6735    -5.6678     1.7513 H       
  44 H44            0.0435    -4.4146    -0.1077 H       
  45 H45            1.1648    -2.3802    -0.9239 H       
@<TRIPOS>BOND
   1    1    2 ar
   2    1    6 ar
   3    1   27 1
   4    2    3 ar
   5    2   28 1
   6    3    4 ar
   7    3   29 1
   8    4    5 ar
   9    4   30 1
  10    5    6 ar
  11    5    7 1
  12    6   26 1
  13    7    8 1
  14    7   12 1
  15    7   31 1
  16    8    9 1
  17    8   13 1
  18    8   32 1
  19    9   10 1
  20    9   33 1
  21    9   34 1
  22   10   11 1
  23   10   35 1
  24   10   36 1
  25   11   12 am
  26   11   17 2
  27   12   16 1
  28   13   14 1
  29   13   15 2
  30   14   37 1
  31   16   18 1
  32   16   38 1
  33   16   39 1
  34   18   24 1
  35   18   40 1
  36   18   41 1
  37   19   20 ar
  38   19   24 ar
  39   19   42 1
  40   20   21 ar
  41   20   43 1
  42   21   22 ar
  43   21   25 1
  44   22   23 ar
  45   22   44 1
  46   23   24 ar
  47   23   45 1

#	End of record

