#	Name: ASD02500225
#	Creating user name:	WinNT
#	Creation time:	15. 06. 2019 20:22

#	Modifying user name:	WinNT
#	Modification time:	15. 06. 2019 20:22

#	Program:	/corina/corina34_cracker 3.40 0067  02.08.2006

@<TRIPOS>MOLECULE
ASD02500225
  63   67    0    0    0
SMALL
NO_CHARGES


@<TRIPOS>ATOM
   1 N1             1.7481     4.1740    -0.7813 N.ar    
   2 C2             2.6589     3.9589     0.1366 C.ar    
   3 C3             3.8490     3.2947    -0.1529 C.ar    
   4 C4             4.0897     2.8486    -1.4211 C.ar    
   5 C5             3.1091     3.0809    -2.4041 C.ar    
   6 C6             3.2862     2.6522    -3.7292 C.ar    
   7 C7             2.3142     2.8965    -4.6511 C.ar    
   8 C8             1.1456     3.5672    -4.2971 C.ar    
   9 C9             0.9411     3.9967    -3.0218 C.ar    
  10 C10            1.9212     3.7634    -2.0417 C.ar    
  11 S11           -0.5461     4.8431    -2.6015 S.o2    
  12 O12           -0.1553     6.0226    -1.9121 O.2     
  13 O13           -1.3450     4.8582    -3.7765 O.2     
  14 N14           -1.3508     3.9031    -1.5010 N.am    
  15 C15           -1.8786     2.6749    -1.8887 C.ar    
  16 C16           -3.0581     2.2101    -1.3085 C.ar    
  17 C17           -3.5822     0.9949    -1.6909 C.ar    
  18 C18           -2.9295     0.2285    -2.6616 C.ar    
  19 C19           -1.7476     0.6982    -3.2404 C.ar    
  20 C20           -1.2314     1.9162    -2.8585 C.ar    
  21 C21           -3.4873    -1.0737    -3.0733 C.2     
  22 O22           -3.4969    -1.3869    -4.2482 O.2     
  23 N23           -3.9864    -1.9161    -2.1472 N.am    
  24 C24           -4.4614    -3.2529    -2.5307 C.3     
  25 C25           -3.7245    -4.2969    -1.6826 C.3     
  26 N26           -3.8029    -3.8954    -0.2710 N.am    
  27 C27           -3.3279    -2.5586     0.1125 C.3     
  28 C28           -4.0596    -1.5167    -0.7348 C.3     
  29 C29           -4.3020    -4.7379     0.6551 C.2     
  30 O30           -4.6914    -5.8385     0.3265 O.2     
  31 C31           -4.3762    -4.3123     2.0988 C.3     
  32 C32           -4.9680    -5.4276     2.9215 C.ar    
  33 C33           -4.1428    -6.3826     3.4857 C.ar    
  34 C34           -4.6843    -7.4056     4.2407 C.ar    
  35 C35           -6.0539    -7.4739     4.4320 C.ar    
  36 C36           -6.8794    -6.5169     3.8664 C.ar    
  37 C37           -6.3351    -5.4918     3.1162 C.ar    
  38 F38           -6.5845    -8.4737     5.1695 F       
  39 F39           -3.6870     2.9517    -0.3706 F       
  40 H40            2.4822     4.3061     1.1439 H       
  41 H41            4.5808     3.1331     0.6249 H       
  42 H42            5.0068     2.3322    -1.6631 H       
  43 H43            4.1882     2.1320    -4.0157 H       
  44 H44            2.4513     2.5663    -5.6702 H       
  45 H45            0.3898     3.7495    -5.0467 H       
  46 H46           -1.4543     4.2084    -0.5861 H       
  47 H47           -4.4956     0.6344    -1.2414 H       
  48 H48           -1.2416     0.1082    -3.9903 H       
  49 H49           -0.3204     2.2812    -3.3095 H       
  50 H50           -5.5339    -3.3258    -2.3502 H       
  51 H51           -4.2531    -3.4262    -3.5865 H       
  52 H52           -4.1948    -5.2717    -1.8123 H       
  53 H53           -2.6803    -4.3478    -1.9910 H       
  54 H54           -3.5362    -2.3853     1.1683 H       
  55 H55           -2.2554    -2.4857    -0.0681 H       
  56 H56           -3.5860    -0.5436    -0.6048 H       
  57 H57           -5.1028    -1.4631    -0.4234 H       
  58 H58           -3.3741    -4.0848     2.4625 H       
  59 H59           -5.0038    -3.4252     2.1843 H       
  60 H60           -3.0745    -6.3293     3.3361 H       
  61 H61           -4.0395    -8.1517     4.6811 H       
  62 H62           -7.9479    -6.5692     4.0150 H       
  63 H63           -6.9785    -4.7429     2.6784 H       
@<TRIPOS>BOND
   1    1    2 ar
   2    1   10 ar
   3    2    3 ar
   4    2   40 1
   5    3    4 ar
   6    3   41 1
   7    4    5 ar
   8    4   42 1
   9    5    6 ar
  10    5   10 ar
  11    6    7 ar
  12    6   43 1
  13    7    8 ar
  14    7   44 1
  15    8    9 ar
  16    8   45 1
  17    9   10 ar
  18    9   11 1
  19   11   12 2
  20   11   13 2
  21   11   14 am
  22   14   15 1
  23   14   46 1
  24   15   16 ar
  25   15   20 ar
  26   16   17 ar
  27   16   39 1
  28   17   18 ar
  29   17   47 1
  30   18   19 ar
  31   18   21 1
  32   19   20 ar
  33   19   48 1
  34   20   49 1
  35   21   22 2
  36   21   23 am
  37   23   24 1
  38   23   28 1
  39   24   25 1
  40   24   50 1
  41   24   51 1
  42   25   26 1
  43   25   52 1
  44   25   53 1
  45   26   27 1
  46   26   29 am
  47   27   28 1
  48   27   54 1
  49   27   55 1
  50   28   56 1
  51   28   57 1
  52   29   30 2
  53   29   31 1
  54   31   32 1
  55   31   58 1
  56   31   59 1
  57   32   33 ar
  58   32   37 ar
  59   33   34 ar
  60   33   60 1
  61   34   35 ar
  62   34   61 1
  63   35   36 ar
  64   35   38 1
  65   36   37 ar
  66   36   62 1
  67   37   63 1

#	End of record

