#	Name: ASD01814076
#	Creating user name:	WinNT
#	Creation time:	15. 06. 2019 19:31

#	Modifying user name:	WinNT
#	Modification time:	15. 06. 2019 19:31

#	Program:	/corina/corina34_cracker 3.40 0067  02.08.2006

@<TRIPOS>MOLECULE
ASD01814076
  53   57    0    0    0
SMALL
NO_CHARGES


@<TRIPOS>ATOM
   1 C1             1.1545     2.2507    -0.5132 C.ar    
   2 C2             0.7784     0.9154    -0.4982 C.ar    
   3 C3             1.7212    -0.0802    -0.3468 C.ar    
   4 C4             3.0682     0.2526    -0.2070 C.ar    
   5 C5             3.4445     1.6060    -0.2229 C.ar    
   6 C6             2.4795     2.6014    -0.3767 C.ar    
   7 N7             4.0208    -0.7323    -0.0539 N.pl3   
   8 C8             5.3252    -0.4647     0.0852 C.2     
   9 C9             5.8153     0.8259     0.0857 C.2     
  10 C10            4.8723     1.9445    -0.0741 C.2     
  11 O11            5.2547     3.1015    -0.0806 O.2     
  12 C12            7.2547     1.0785     0.2422 C.2     
  13 O13            7.7211     2.3433     0.2410 O.3     
  14 O14            8.0246     0.1469     0.3726 O.2     
  15 C15            3.5871    -2.1316    -0.0427 C.3     
  16 C16            3.4445    -2.6248    -1.4595 C.ar    
  17 C17            4.5267    -2.5715    -2.3222 C.ar    
  18 C18            4.3976    -3.0239    -3.6233 C.ar    
  19 C19            3.1824    -3.5313    -4.0622 C.ar    
  20 C20            2.0997    -3.5833    -3.1935 C.ar    
  21 C21            2.2352    -3.1349    -1.8944 C.ar    
  22 N22            3.0480    -3.9896    -5.3787 N.pl3   
  23 F23            1.3400    -1.3763    -0.3336 F       
  24 C24            3.4217    -3.2948    -6.4791 C.2     
  25 C25            3.1490    -4.0382    -7.6077 C.2     
  26 C26            2.5529    -5.3037    -7.1355 C.ar    
  27 C27            2.5209    -5.2166    -5.7353 C.ar    
  28 F28            5.7086    -2.0774    -1.8932 F       
  29 C29            2.0743    -6.4432    -7.7760 C.ar    
  30 C30            1.5643    -7.4827    -7.0288 C.ar    
  31 C31            1.5265    -7.3962    -5.6448 C.ar    
  32 C32            2.0036    -6.2769    -4.9982 C.ar    
  33 C33            3.3920    -3.6626    -8.9523 C.2     
  34 O34            3.1006    -4.4191    -9.8561 O.2     
  35 C35            4.0121    -2.3241    -9.2605 C.3     
  36 H36            0.4053     3.0187    -0.6371 H       
  37 H37           -0.2636     0.6526    -0.6057 H       
  38 H38            2.7698     3.6416    -0.3891 H       
  39 H39            6.0170    -1.2858     0.2014 H       
  40 H40            8.6752     2.4595     0.3470 H       
  41 H41            4.3273    -2.7373     0.4801 H       
  42 H42            2.6272    -2.2104     0.4677 H       
  43 H43            5.2409    -2.9819    -4.2966 H       
  44 H44            1.1534    -3.9777    -3.5329 H       
  45 H45            1.3932    -3.1759    -1.2193 H       
  46 H46            3.8648    -2.3099    -6.4737 H       
  47 H47            2.1023    -6.5122    -8.8534 H       
  48 H48            1.1923    -8.3682    -7.5227 H       
  49 H49            1.1241    -8.2162    -5.0684 H       
  50 H50            1.9697    -6.2199    -3.9202 H       
  51 H51            4.2023    -1.7890    -8.3302 H       
  52 H52            4.9516    -2.4729    -9.7927 H       
  53 H53            3.3309    -1.7424    -9.8815 H       
@<TRIPOS>BOND
   1    1    2 ar
   2    1    6 ar
   3    1   36 1
   4    2    3 ar
   5    2   37 1
   6    3    4 ar
   7    3   23 1
   8    4    5 ar
   9    4    7 1
  10    5    6 ar
  11    5   10 1
  12    6   38 1
  13    7    8 1
  14    7   15 1
  15    8    9 2
  16    8   39 1
  17    9   10 1
  18    9   12 1
  19   10   11 2
  20   12   13 1
  21   12   14 2
  22   13   40 1
  23   15   16 1
  24   15   41 1
  25   15   42 1
  26   16   17 ar
  27   16   21 ar
  28   17   18 ar
  29   17   28 1
  30   18   19 ar
  31   18   43 1
  32   19   20 ar
  33   19   22 1
  34   20   21 ar
  35   20   44 1
  36   21   45 1
  37   22   24 1
  38   22   27 1
  39   24   25 2
  40   24   46 1
  41   25   26 1
  42   25   33 1
  43   26   27 ar
  44   26   29 ar
  45   27   32 ar
  46   29   30 ar
  47   29   47 1
  48   30   31 ar
  49   30   48 1
  50   31   32 ar
  51   31   49 1
  52   32   50 1
  53   33   34 2
  54   33   35 1
  55   35   51 1
  56   35   52 1
  57   35   53 1

#	End of record

