#	Name: ASD03091908
#	Creating user name:	WinNT
#	Creation time:	15. 06. 2019 20:31

#	Modifying user name:	WinNT
#	Modification time:	15. 06. 2019 20:31

#	Program:	/corina/corina34_cracker 3.40 0067  02.08.2006

@<TRIPOS>MOLECULE
ASD03091908
  54   58    0    0    0
SMALL
NO_CHARGES


@<TRIPOS>ATOM
   1 C1            -0.0150     1.3951     0.0120 C.ar    
   2 C2            -1.2495     2.0685     0.0343 C.ar    
   3 C3            -2.4497     1.3139     0.0356 C.ar    
   4 C4            -2.3931    -0.0936     0.0126 C.ar    
   5 C5            -1.1947    -0.7309    -0.0091 C.ar    
   6 C6             0.0034    -0.0000    -0.0093 C.ar    
   7 O7             1.1602     2.0650     0.0162 O.3     
   8 C8             2.2582     1.4564     0.6964 C.3     
   9 N9             2.4079     0.0581     0.2908 N.am    
  10 C10            1.3159    -0.6756    -0.0259 C.2     
  11 C11           -3.6690    -0.8955     0.0125 C.3     
  12 N12           -4.2252    -0.9307    -1.3467 N.3     
  13 C13           -3.3242    -1.6316    -2.2645 C.3     
  14 C14           -5.5769    -1.4946    -1.3463 C.3     
  15 C15           -6.2956    -1.1251    -2.6484 C.3     
  16 S16           -5.3793    -1.8540    -4.0405 S.3     
  17 C17           -3.6832    -1.2840    -3.7132 C.3     
  18 O18            1.4125    -1.8531    -0.3143 O.2     
  19 C19            3.7404    -0.5474     0.2275 C.3     
  20 C20            4.5998     0.1758    -0.8300 C.3     
  21 C21            4.4629    -0.3734     1.5749 C.3     
  22 C22            5.7362     0.4495     1.2891 C.3     
  23 C23            5.4078     1.2166    -0.0158 C.3     
  24 O24            4.8154    -1.6507     2.1098 O.3     
  25 C25           -1.3165     3.4708     0.0562 C.ar    
  26 C26           -3.6823     1.9865     0.0605 C.ar    
  27 C27           -2.5300     4.0885     0.0804 C.ar    
  28 C28           -3.7096     3.3479     0.0815 C.ar    
  29 H29           -1.1629    -1.8103    -0.0264 H       
  30 H30            3.1731     1.9991     0.4586 H       
  31 H31            2.0840     1.5016     1.7715 H       
  32 H32           -3.4593    -1.9119     0.3457 H       
  33 H33           -4.3889    -0.4330     0.6878 H       
  34 H34           -2.2962    -1.3299    -2.0637 H       
  35 H35           -3.4204    -2.7071    -2.1156 H       
  36 H36           -5.5167    -2.5796    -1.2612 H       
  37 H37           -6.1352    -1.0965    -0.4990 H       
  38 H38           -7.3111    -1.5208    -2.6312 H       
  39 H39           -6.3237    -0.0408    -2.7562 H       
  40 H40           -3.6256    -0.2049    -3.8559 H       
  41 H41           -2.9917    -1.7834    -4.3918 H       
  42 H42            3.6579    -1.6062    -0.0179 H       
  43 H43            5.2710    -0.5279    -1.3223 H       
  44 H44            3.9643     0.6742    -1.5621 H       
  45 H45            3.8222     0.1615     2.2758 H       
  46 H46            5.9300     1.1475     2.1035 H       
  47 H47            6.5909    -0.2100     1.1391 H       
  48 H48            6.3216     1.4934    -0.5415 H       
  49 H49            4.8009     2.0969     0.1960 H       
  50 H50            5.2745    -1.6081     2.9598 H       
  51 H51           -0.4095     4.0571     0.0544 H       
  52 H52           -4.6055     1.4260     0.0626 H       
  53 H53           -2.5783     5.1673     0.0976 H       
  54 H54           -4.6598     3.8608     0.1013 H       
@<TRIPOS>BOND
   1    1    6 ar
   2    1    7 1
   3    1    2 ar
   4    2    3 ar
   5    2   25 ar
   6    3    4 ar
   7    3   26 ar
   8    4    5 ar
   9    4   11 1
  10    5    6 ar
  11    5   29 1
  12    6   10 1
  13    7    8 1
  14    8    9 1
  15    8   30 1
  16    8   31 1
  17    9   10 am
  18    9   19 1
  19   10   18 2
  20   11   12 1
  21   11   32 1
  22   11   33 1
  23   12   14 1
  24   12   13 1
  25   13   17 1
  26   13   34 1
  27   13   35 1
  28   14   15 1
  29   14   36 1
  30   14   37 1
  31   15   16 1
  32   15   38 1
  33   15   39 1
  34   16   17 1
  35   17   40 1
  36   17   41 1
  37   19   21 1
  38   19   20 1
  39   19   42 1
  40   20   23 1
  41   20   43 1
  42   20   44 1
  43   21   22 1
  44   21   24 1
  45   21   45 1
  46   22   23 1
  47   22   46 1
  48   22   47 1
  49   23   48 1
  50   23   49 1
  51   24   50 1
  52   25   27 ar
  53   25   51 1
  54   26   28 ar
  55   26   52 1
  56   27   28 ar
  57   27   53 1
  58   28   54 1

#	End of record

