#	Name: ASD00170843
#	Creating user name:	WinNT
#	Creation time:	15. 06. 2019 18:32

#	Modifying user name:	WinNT
#	Modification time:	15. 06. 2019 18:32

#	Program:	/corina/corina34_cracker 3.40 0067  02.08.2006

@<TRIPOS>MOLECULE
ASD00170843
  64   68    0    0    0
SMALL
NO_CHARGES


@<TRIPOS>ATOM
   1 C1            -2.5931     2.0335     1.2766 C.ar    
   2 C2            -2.4688     0.6483     1.4002 C.ar    
   3 C3            -2.9870     0.0041     2.5253 C.ar    
   4 C4            -3.6180     0.7384     3.5072 C.ar    
   5 C5            -3.7382     2.1123     3.3790 C.ar    
   6 C6            -3.2261     2.7570     2.2651 C.ar    
   7 Cl7           -4.5339     3.0300     4.6194 Cl      
   8 C8            -1.7915    -0.1333     0.3435 C.2     
   9 C9            -1.5644    -1.5677     0.5261 C.2     
  10 O10           -1.4227     0.4162    -0.6786 O.2     
  11 C11           -2.5492    -2.5776     0.2197 C.2     
  12 C12           -2.1177    -3.8208     0.4665 C.2     
  13 S13           -0.4771    -3.7978     1.0878 S.3     
  14 C14           -0.3856    -2.0982     1.0032 C.2     
  15 N15            0.7156    -1.3547     1.3691 N.pl3   
  16 C16           -2.9150    -5.0453     0.2461 C.ar    
  17 C17           -3.9207    -2.2651    -0.3211 C.3     
  18 N18           -3.9689    -2.5922    -1.7524 N.3     
  19 C19           -2.3989    -6.0886    -0.5248 C.ar    
  20 C20           -3.1484    -7.2290    -0.7265 C.ar    
  21 C21           -4.4090    -7.3402    -0.1669 C.ar    
  22 C22           -4.9266    -6.3098     0.5978 C.ar    
  23 C23           -4.1852    -5.1665     0.8126 C.ar    
  24 C24           -5.3483    -2.5495    -2.2559 C.3     
  25 C25           -3.0980    -1.6976    -2.5265 C.3     
  26 C26           -6.2121    -3.5852    -1.5150 C.3     
  27 C27           -7.3317    -2.7974    -0.8039 C.3     
  28 C28           -7.4480    -1.4845    -1.6175 C.3     
  29 C29           -5.9731    -1.1685    -1.9692 C.3     
  30 C30           -1.6259    -2.1059    -2.3424 C.3     
  31 C31           -3.4075    -1.8312    -4.0319 C.3     
  32 C32           -2.0234    -1.7097    -4.7164 C.3     
  33 C33           -1.0922    -2.4733    -3.7424 C.3     
  34 H34           -2.1903     2.5377     0.4106 H       
  35 H35           -2.8941    -1.0671     2.6261 H       
  36 H36           -4.0195     0.2412     4.3778 H       
  37 H37           -3.3229     3.8285     2.1706 H       
  38 H38            1.5358    -1.8003     1.6331 H       
  39 H39            0.6706    -0.3858     1.3626 H       
  40 H40           -4.6649    -2.8567     0.2121 H       
  41 H41           -4.1326    -1.2048    -0.1833 H       
  42 H42           -1.4153    -6.0030    -0.9624 H       
  43 H43           -2.7506    -8.0367    -1.3230 H       
  44 H44           -4.9916    -8.2352    -0.3280 H       
  45 H45           -5.9114    -6.4027     1.0312 H       
  46 H46           -4.5902    -4.3630     1.4100 H       
  47 H47           -5.3608    -2.7507    -3.3271 H       
  48 H48           -3.2425    -0.6661    -2.2050 H       
  49 H49           -6.6446    -4.2884    -2.2267 H       
  50 H50           -5.6079    -4.1194    -0.7818 H       
  51 H51           -8.2695    -3.3519    -0.8384 H       
  52 H52           -7.0516    -2.5834     0.2276 H       
  53 H53           -8.0357    -1.6414    -2.5220 H       
  54 H54           -7.8788    -0.6896    -1.0086 H       
  55 H55           -5.4736    -0.6915    -1.1259 H       
  56 H56           -5.9193    -0.5343    -2.8541 H       
  57 H57           -1.0557    -1.2723    -1.9324 H       
  58 H58           -1.5577    -2.9678    -1.6787 H       
  59 H59           -3.8545    -2.8022    -4.2447 H       
  60 H60           -4.0666    -1.0269    -4.3587 H       
  61 H61           -2.0336    -2.1880    -5.6958 H       
  62 H62           -1.7234    -0.6651    -4.7985 H       
  63 H63           -0.0616    -2.1377    -3.8579 H       
  64 H64           -1.1652    -3.5481    -3.9085 H       
@<TRIPOS>BOND
   1    1    2 ar
   2    1    6 ar
   3    1   34 1
   4    2    3 ar
   5    2    8 1
   6    3    4 ar
   7    3   35 1
   8    4    5 ar
   9    4   36 1
  10    5    6 ar
  11    5    7 1
  12    6   37 1
  13    8    9 1
  14    8   10 2
  15    9   11 1
  16    9   14 2
  17   11   12 2
  18   11   17 1
  19   12   13 1
  20   12   16 1
  21   13   14 1
  22   14   15 1
  23   15   38 1
  24   15   39 1
  25   16   19 ar
  26   16   23 ar
  27   17   18 1
  28   17   40 1
  29   17   41 1
  30   18   24 1
  31   18   25 1
  32   19   20 ar
  33   19   42 1
  34   20   21 ar
  35   20   43 1
  36   21   22 ar
  37   21   44 1
  38   22   23 ar
  39   22   45 1
  40   23   46 1
  41   24   26 1
  42   24   29 1
  43   24   47 1
  44   25   30 1
  45   25   31 1
  46   25   48 1
  47   26   27 1
  48   26   49 1
  49   26   50 1
  50   27   28 1
  51   27   51 1
  52   27   52 1
  53   28   29 1
  54   28   53 1
  55   28   54 1
  56   29   55 1
  57   29   56 1
  58   30   33 1
  59   30   57 1
  60   30   58 1
  61   31   32 1
  62   31   59 1
  63   31   60 1
  64   32   33 1
  65   32   61 1
  66   32   62 1
  67   33   63 1
  68   33   64 1

#	End of record

