#	Name: ASD00171073
#	Creating user name:	WinNT
#	Creation time:	15. 06. 2019 18:32

#	Modifying user name:	WinNT
#	Modification time:	15. 06. 2019 18:32

#	Program:	/corina/corina34_cracker 3.40 0067  02.08.2006

@<TRIPOS>MOLECULE
ASD00171073
  53   56    0    0    0
SMALL
NO_CHARGES


@<TRIPOS>ATOM
   1 C1             0.3773     1.7341     0.7083 C.ar    
   2 N2             0.3357     0.3476     0.5444 N.3     
   3 C3            -1.0507    -0.1300     0.4483 C.3     
   4 C4            -1.0510    -1.6386     0.1904 C.3     
   5 N5            -0.3369    -2.3193     1.2796 N.3     
   6 C6             1.0496    -1.8416     1.3758 C.3     
   7 C7             1.0499    -0.3330     1.6336 C.3     
   8 C8            -0.3806    -3.7775     1.1073 C.3     
   9 C9             0.5576    -4.4279     2.0911 C.2     
  10 C10            1.7697    -4.8529     1.7706 C.2     
  11 S11            2.5763    -5.5538     3.1621 S.3     
  12 C12            1.2417    -5.2592     4.1804 C.2     
  13 C13            0.2266    -4.6455     3.4837 C.2     
  14 N14            1.1885    -5.5868     5.5201 N.pl3   
  15 C15           -1.0521    -4.2634     4.0824 C.2     
  16 O16           -1.1994    -3.1452     4.5416 O.2     
  17 C17           -2.1660    -5.2349     4.1299 C.ar    
  18 C18           -3.3496    -4.9120     4.7961 C.ar    
  19 C19           -4.3850    -5.8218     4.8366 C.ar    
  20 C20           -4.2522    -7.0543     4.2185 C.ar    
  21 C21           -3.0801    -7.3805     3.5564 C.ar    
  22 C22           -2.0402    -6.4764     3.5038 C.ar    
  23 Cl23          -5.5598    -8.1948     4.2742 Cl      
  24 C24            1.5991     2.3856     0.8201 C.ar    
  25 C25            1.6365     3.7566     0.9815 C.ar    
  26 C26            0.4596     4.4809     1.0319 C.ar    
  27 C27           -0.7584     3.8355     0.9214 C.ar    
  28 C28           -0.8029     2.4653     0.7541 C.ar    
  29 C29            0.5044     5.9769     1.2082 C.3     
  30 H30           -1.5731     0.0795     1.3818 H       
  31 H31           -1.5547     0.3794    -0.3731 H       
  32 H32           -2.0784    -2.0000     0.1476 H       
  33 H33           -0.5525    -1.8458    -0.7565 H       
  34 H34            1.5536    -2.3511     2.1971 H       
  35 H35            1.5719    -2.0511     0.4423 H       
  36 H36            2.0773     0.0284     1.6765 H       
  37 H37            0.5514    -0.1259     2.5806 H       
  38 H38           -1.3956    -4.1339     1.2830 H       
  39 H39           -0.0765    -4.0326     0.0921 H       
  40 H40            2.2037    -4.7787     0.7844 H       
  41 H41            1.9144    -6.0855     5.9266 H       
  42 H42            0.4253    -5.3182     6.0551 H       
  43 H43           -3.4539    -3.9516     5.2790 H       
  44 H44           -5.3011    -5.5732     5.3517 H       
  45 H45           -2.9822    -8.3431     3.0766 H       
  46 H46           -1.1269    -6.7317     2.9870 H       
  47 H47            2.5186     1.8205     0.7811 H       
  48 H48            2.5861     4.2637     1.0688 H       
  49 H49           -1.6757     4.4041     0.9615 H       
  50 H50           -1.7545     1.9619     0.6678 H       
  51 H51            0.5450     6.4569     0.2304 H       
  52 H52           -0.3888     6.3072     1.7383 H       
  53 H53            1.3896     6.2486     1.7833 H       
@<TRIPOS>BOND
   1    1    2 1
   2    1   24 ar
   3    1   28 ar
   4    2    3 1
   5    2    7 1
   6    3    4 1
   7    3   30 1
   8    3   31 1
   9    4    5 1
  10    4   32 1
  11    4   33 1
  12    5    6 1
  13    5    8 1
  14    6    7 1
  15    6   34 1
  16    6   35 1
  17    7   36 1
  18    7   37 1
  19    8    9 1
  20    8   38 1
  21    8   39 1
  22    9   10 2
  23    9   13 1
  24   10   11 1
  25   10   40 1
  26   11   12 1
  27   12   13 2
  28   12   14 1
  29   13   15 1
  30   14   41 1
  31   14   42 1
  32   15   16 2
  33   15   17 1
  34   17   18 ar
  35   17   22 ar
  36   18   19 ar
  37   18   43 1
  38   19   20 ar
  39   19   44 1
  40   20   21 ar
  41   20   23 1
  42   21   22 ar
  43   21   45 1
  44   22   46 1
  45   24   25 ar
  46   24   47 1
  47   25   26 ar
  48   25   48 1
  49   26   27 ar
  50   26   29 1
  51   27   28 ar
  52   27   49 1
  53   28   50 1
  54   29   51 1
  55   29   52 1
  56   29   53 1

#	End of record

