#	Name: ASD01914433
#	Creating user name:	WinNT
#	Creation time:	15. 06. 2019 20:03

#	Modifying user name:	WinNT
#	Modification time:	15. 06. 2019 20:03

#	Program:	/corina/corina34_cracker 3.40 0067  02.08.2006

@<TRIPOS>MOLECULE
ASD01914433
  52   56    0    0    0
SMALL
NO_CHARGES


@<TRIPOS>ATOM
   1 C1            -0.0167     1.3770     0.0096 C.ar    
   2 C2             0.0021    -0.0041     0.0020 C.ar    
   3 C3             1.2144    -0.6804    -0.0132 C.ar    
   4 C4             2.4046     0.0342    -0.0207 C.ar    
   5 C5             2.3796     1.4151    -0.0130 C.ar    
   6 C6             1.1705     2.0860     0.0021 C.ar    
   7 N7             1.2366    -2.0822    -0.0204 N.pl3   
   8 C8             0.5487    -2.9096     0.8265 C.2     
   9 C9             0.8588    -4.1822     0.4665 C.2     
  10 N10            1.7144    -4.1212    -0.5740 N.2     
  11 C11            1.9403    -2.8726    -0.8732 C.2     
  12 C12            0.3473    -5.4198     1.1053 C.ar    
  13 C13           -0.6155    -5.3413     2.1095 C.ar    
  14 C14           -1.0888    -6.4951     2.7006 C.ar    
  15 C15           -0.6082    -7.7299     2.2968 C.ar    
  16 C16            0.3491    -7.8127     1.2986 C.ar    
  17 C17            0.8241    -6.6648     0.6985 C.ar    
  18 C18            2.8419    -2.3851    -1.9780 C.3     
  19 O19            0.8626    -2.5080    -3.2575 O.2     
  20 C20            2.0457    -2.2411    -3.2494 C.2     
  21 N21            2.6483    -1.8157    -4.3773 N.am    
  22 F22           -1.0741    -8.8568     2.8784 F       
  23 C23            4.0608    -1.4597    -4.5399 C.3     
  24 C24            0.8685    -9.1590     0.8640 C.3     
  25 C25            2.0246    -1.6224    -5.6883 C.3     
  26 C26            3.1012    -1.1332    -6.6439 C.2     
  27 C27            4.2579    -1.0440    -5.9792 C.2     
  28 N28            3.2028    -0.7820    -7.9274 N.2     
  29 C29            4.3544    -0.4104    -8.3565 C.2     
  30 S30            5.5029    -0.4758    -7.0944 S.3     
  31 C31            4.6505     0.0180    -9.7706 C.3     
  32 H32           -0.9595     1.9037     0.0169 H       
  33 H33           -0.9255    -0.5573     0.0082 H       
  34 H34            3.3492    -0.4893    -0.0321 H       
  35 H35            3.3052     1.9715    -0.0185 H       
  36 H36            1.1534     3.1658     0.0077 H       
  37 H37           -0.1121    -2.6087     1.6260 H       
  38 H38           -0.9905    -4.3789     2.4251 H       
  39 H39           -1.8348    -6.4351     3.4792 H       
  40 H40            1.5701    -6.7302    -0.0797 H       
  41 H41            3.2644    -1.4188    -1.7025 H       
  42 H42            3.6473    -3.1030    -2.1330 H       
  43 H43            4.3129    -0.6318    -3.8773 H       
  44 H44            4.6885    -2.3218    -4.3140 H       
  45 H45            0.2507    -9.5417     0.0516 H       
  46 H46            1.8981    -9.0578     0.5209 H       
  47 H47            0.8321    -9.8512     1.7052 H       
  48 H48            1.6149    -2.5671    -6.0455 H       
  49 H49            1.2310    -0.8789    -5.6139 H       
  50 H50            4.5007     1.0937    -9.8634 H       
  51 H51            5.6839    -0.2273   -10.0157 H       
  52 H52            3.9813    -0.5025   -10.4557 H       
@<TRIPOS>BOND
   1    1    2 ar
   2    1    6 ar
   3    1   32 1
   4    2    3 ar
   5    2   33 1
   6    3    4 ar
   7    3    7 1
   8    4    5 ar
   9    4   34 1
  10    5    6 ar
  11    5   35 1
  12    6   36 1
  13    7    8 1
  14    7   11 1
  15    8    9 2
  16    8   37 1
  17    9   10 1
  18    9   12 1
  19   10   11 2
  20   11   18 1
  21   12   13 ar
  22   12   17 ar
  23   13   14 ar
  24   13   38 1
  25   14   15 ar
  26   14   39 1
  27   15   16 ar
  28   15   22 1
  29   16   17 ar
  30   16   24 1
  31   17   40 1
  32   18   20 1
  33   18   41 1
  34   18   42 1
  35   19   20 2
  36   20   21 am
  37   21   25 1
  38   21   23 1
  39   23   27 1
  40   23   43 1
  41   23   44 1
  42   24   45 1
  43   24   46 1
  44   24   47 1
  45   25   26 1
  46   25   48 1
  47   25   49 1
  48   26   27 2
  49   26   28 1
  50   27   30 1
  51   28   29 2
  52   29   30 1
  53   29   31 1
  54   31   50 1
  55   31   51 1
  56   31   52 1

#	End of record

