#	Name: ASD01903316
#	Creating user name:	WinNT
#	Creation time:	15. 06. 2019 19:54

#	Modifying user name:	WinNT
#	Modification time:	15. 06. 2019 19:54

#	Program:	/corina/corina34_cracker 3.40 0067  02.08.2006

@<TRIPOS>MOLECULE
ASD01903316
  33   36    0    0    0
SMALL
NO_CHARGES


@<TRIPOS>ATOM
   1 N1            -0.0111     0.9658     0.0074 N.pl3   
   2 H2             0.0453    -0.0025     0.0035 H       
   3 C3             1.1477     1.7281    -0.0089 C.2     
   4 C4            -1.2544     1.5903     0.0234 C.ar    
   5 N5            -1.3251     2.9088     0.1244 N.ar    
   6 C6            -2.4846     3.5402     0.1427 C.ar    
   7 C7            -3.6735     2.8406     0.0564 C.ar    
   8 C8            -3.6416     1.4570    -0.0508 C.ar    
   9 C9            -2.4114     0.8243    -0.0727 C.ar    
  10 S10            2.7871     1.0911     0.0955 S.3     
  11 C11            3.4267     2.7253     0.0218 C.2     
  12 C12            2.3899     3.5839    -0.1246 C.2     
  13 N13            1.1935     3.0223    -0.1090 N.2     
  14 Cl14          -2.5162     5.2707     0.2775 Cl      
  15 C15            4.8502     3.1703     0.1512 C.3     
  16 C16            5.5093     3.5255    -1.1913 C.3     
  17 C17            4.4977     4.3290    -2.0301 C.3     
  18 C18            3.7494     5.3459    -1.2245 C.2     
  19 C19            2.7291     5.0227    -0.3785 C.2     
  20 N20            3.8946     6.6804    -1.1731 N.pl3   
  21 N21            2.8898     7.1956    -0.3378 N.2     
  22 C22            2.1835     6.1934     0.1344 C.2     
  23 H23           -4.6175     3.3650     0.0724 H       
  24 H24           -4.5566     0.8874    -0.1193 H       
  25 H25           -2.3505    -0.2508    -0.1555 H       
  26 H26            4.8840     4.0465     0.7987 H       
  27 H27            5.4239     2.3712     0.6206 H       
  28 H28            6.4006     4.1277    -1.0149 H       
  29 H29            5.7814     2.6119    -1.7200 H       
  30 H30            5.0325     4.8397    -2.8308 H       
  31 H31            3.7820     3.6372    -2.4744 H       
  32 H32            4.5743     7.1978    -1.6326 H       
  33 H33            1.3352     6.2660     0.7988 H       
@<TRIPOS>BOND
   1    1    2 1
   2    1    3 1
   3    1    4 1
   4    3   10 1
   5    3   13 2
   6    4    5 ar
   7    4    9 ar
   8    5    6 ar
   9    6    7 ar
  10    6   14 1
  11    7    8 ar
  12    7   23 1
  13    8    9 ar
  14    8   24 1
  15    9   25 1
  16   10   11 1
  17   11   12 2
  18   11   15 1
  19   12   13 1
  20   12   19 1
  21   15   16 1
  22   15   26 1
  23   15   27 1
  24   16   17 1
  25   16   28 1
  26   16   29 1
  27   17   18 1
  28   17   30 1
  29   17   31 1
  30   18   19 2
  31   18   20 1
  32   19   22 1
  33   20   21 1
  34   20   32 1
  35   21   22 2
  36   22   33 1

#	End of record

