#	Name: ASD02039187
#	Creating user name:	WinNT
#	Creation time:	15. 06. 2019 20:17

#	Modifying user name:	WinNT
#	Modification time:	15. 06. 2019 20:17

#	Program:	/corina/corina34_cracker 3.40 0067  02.08.2006

@<TRIPOS>MOLECULE
ASD02039187
  42   45    0    0    0
SMALL
NO_CHARGES


@<TRIPOS>ATOM
   1 N1            -0.0156     1.3021     0.0092 N.2     
   2 C2             0.0021    -0.0041     0.0020 C.2     
   3 N3             1.2970    -0.3863    -0.0124 N.2     
   4 C4             1.9921     0.7246    -0.0131 C.2     
   5 O5             1.1174     1.7349     0.0007 O.3     
   6 C6             3.4946     0.8408    -0.0264 C.3     
   7 C7             3.9823     0.8869    -1.4515 C.ar    
   8 N8            -1.1043    -0.8429     0.0088 N.pl3   
   9 C9            -3.4687    -1.3889     0.0295 C.ar    
  10 C10           -3.9214    -1.9054     1.2295 C.ar    
  11 C11           -4.8554    -2.9232     1.2364 C.ar    
  12 C12           -5.3392    -3.4271     0.0378 C.ar    
  13 C13           -4.8834    -2.9072    -1.1650 C.ar    
  14 C14           -3.9493    -1.8895    -1.1665 C.ar    
  15 C15            4.1119     2.1117    -2.0952 C.ar    
  16 C16            4.5513     2.1802    -3.3867 C.ar    
  17 C17            4.8754     1.0116    -4.0717 C.ar    
  18 C18            4.7452    -0.2304    -3.4210 C.ar    
  19 C19            4.2977    -0.2740    -2.0957 C.ar    
  20 O20           -6.2578    -4.4287     0.0419 O.3     
  21 C21           -2.4544    -0.2744     0.0250 C.3     
  22 C22           -6.7113    -4.8982    -1.2293 C.3     
  23 F23           -7.3074    -3.8443    -1.9301 F       
  24 F24           -5.6239    -5.3884    -1.9605 F       
  25 N25            5.3309     0.7482    -5.3371 N.pl3   
  26 N26            5.4873    -0.6335    -5.4883 N.2     
  27 C27            5.1544    -1.2445    -4.3873 C.2     
  28 H28            3.7929     1.7535     0.4895 H       
  29 H29            3.9302    -0.0211     0.4790 H       
  30 H30           -0.9833    -1.8053     0.0027 H       
  31 H31           -3.5442    -1.5129     2.1623 H       
  32 H32           -5.2084    -3.3265     2.1740 H       
  33 H33           -5.2583    -3.2981    -2.0994 H       
  34 H34           -3.5945    -1.4842    -2.1025 H       
  35 H35            3.8618     3.0204    -1.5680 H       
  36 H36            4.6470     3.1384    -3.8757 H       
  37 H37            4.1946    -1.2218    -1.5884 H       
  38 H38           -2.5810     0.3357     0.9194 H       
  39 H39           -2.5987     0.3446    -0.8605 H       
  40 H40           -7.4400    -5.6956    -1.0833 H       
  41 H41            5.5151     1.4133    -6.0187 H       
  42 H42            5.1777    -2.3111    -4.2193 H       
@<TRIPOS>BOND
   1    1    2 2
   2    1    5 1
   3    2    3 1
   4    2    8 1
   5    3    4 2
   6    4    5 1
   7    4    6 1
   8    6    7 1
   9    6   28 1
  10    6   29 1
  11    7   15 ar
  12    7   19 ar
  13    8   21 1
  14    8   30 1
  15    9   10 ar
  16    9   14 ar
  17    9   21 1
  18   10   11 ar
  19   10   31 1
  20   11   12 ar
  21   11   32 1
  22   12   13 ar
  23   12   20 1
  24   13   14 ar
  25   13   33 1
  26   14   34 1
  27   15   16 ar
  28   15   35 1
  29   16   17 ar
  30   16   36 1
  31   17   18 ar
  32   17   25 1
  33   18   19 ar
  34   18   27 1
  35   19   37 1
  36   20   22 1
  37   21   38 1
  38   21   39 1
  39   22   23 1
  40   22   24 1
  41   22   40 1
  42   25   26 1
  43   25   41 1
  44   26   27 2
  45   27   42 1

#	End of record

