#	Name: ASD00960210
#	Creating user name:	WinNT
#	Creation time:	15. 06. 2019 18:53

#	Modifying user name:	WinNT
#	Modification time:	15. 06. 2019 18:53

#	Program:	/corina/corina34_cracker 3.40 0067  02.08.2006

@<TRIPOS>MOLECULE
ASD00960210
  34   36    0    0    0
SMALL
NO_CHARGES


@<TRIPOS>ATOM
   1 C1            -0.0170     1.4010     0.0097 C.2     
   2 C2             0.0021    -0.0041     0.0020 C.2     
   3 N3             1.2765     1.8417    -0.0002 N.pl3   
   4 C4             2.1136     0.7543    -0.0141 C.2     
   5 C5             1.3422    -0.3976    -0.0129 C.2     
   6 N6             1.8450     3.1236     0.0008 N.2     
   7 C7             3.1443     3.2640    -0.0112 C.2     
   8 N8             3.9681     2.2205    -0.0247 N.2     
   9 C9             3.5132     0.9800    -0.0262 C.2     
  10 N10            4.3913    -0.0849    -0.0399 N.pl3   
  11 C11           -1.1384    -0.8700     0.0087 C.1     
  12 C12           -2.0734    -1.5799     0.0141 C.1     
  13 C13           -1.1729     2.2167     0.0199 C.2     
  14 O14           -2.2779     1.7062     0.0230 O.2     
  15 O15           -1.0504     3.5610     0.0261 O.3     
  16 C16           -2.2595     4.3226     0.0362 C.3     
  17 C17           -1.9273     5.7925     0.0419 C.ar    
  18 C18           -1.7811     6.4727    -1.1526 C.ar    
  19 C19           -1.4763     7.8211    -1.1473 C.ar    
  20 C20           -1.3182     8.4892     0.0525 C.ar    
  21 C21           -1.4653     7.8092     1.2470 C.ar    
  22 C22           -1.7743     6.4618     1.2417 C.ar    
  23 H23            1.7100    -1.4130    -0.0215 H       
  24 H24            3.5623     4.2598    -0.0105 H       
  25 H25            5.3479     0.0754    -0.0485 H       
  26 H26            4.0518    -0.9935    -0.0410 H       
  27 H27           -2.9097    -2.2149     0.0190 H       
  28 H28           -2.8454     4.0860    -0.8520 H       
  29 H29           -2.8362     4.0769     0.9279 H       
  30 H30           -1.9047     5.9507    -2.0899 H       
  31 H31           -1.3614     8.3524    -2.0805 H       
  32 H32           -1.0794     9.5425     0.0566 H       
  33 H33           -1.3414     8.3311     2.1843 H       
  34 H34           -1.8929     5.9314     2.1749 H       
@<TRIPOS>BOND
   1    1    2 2
   2    1    3 1
   3    1   13 1
   4    2   11 1
   5    2    5 1
   6    3    4 1
   7    3    6 1
   8    4    5 2
   9    4    9 1
  10    5   23 1
  11    6    7 2
  12    7    8 1
  13    7   24 1
  14    8    9 2
  15    9   10 1
  16   10   25 1
  17   10   26 1
  18   11   12 3
  19   12   27 1
  20   13   14 2
  21   13   15 1
  22   15   16 1
  23   16   17 1
  24   16   28 1
  25   16   29 1
  26   17   18 ar
  27   17   22 ar
  28   18   19 ar
  29   18   30 1
  30   19   20 ar
  31   19   31 1
  32   20   21 ar
  33   20   32 1
  34   21   22 ar
  35   21   33 1
  36   22   34 1

#	End of record

