#	Name: ASD04370072
#	Creating user name:	WinNT
#	Creation time:	15. 06. 2019 20:49

#	Modifying user name:	WinNT
#	Modification time:	15. 06. 2019 20:49

#	Program:	/corina/corina34_cracker 3.40 0067  02.08.2006

@<TRIPOS>MOLECULE
ASD04370072
  66   66    0    0    0
SMALL
NO_CHARGES


@<TRIPOS>ATOM
   1 C1            -0.6617    -0.3500    -1.3103 C.2     
   2 C2             0.0144     0.0234    -0.0163 C.3     
   3 C3             1.4090    -0.6042     0.0301 C.3     
   4 C4             1.2809    -2.1274     0.0953 C.3     
   5 O5            -0.0474    -0.9469    -2.1625 O.2     
   6 O6            -1.9479    -0.0243    -1.5139 O.3     
   7 N7             2.1218    -0.1229     1.2161 N.am    
   8 C8             2.8503     1.0092     1.1513 C.2     
   9 C9             3.6735     1.4443     2.3361 C.3     
  10 C10            4.3974     2.7502     2.0022 C.3     
  11 C11            5.2333     3.1920     3.2052 C.3     
  12 C12            5.9572     4.4979     2.8713 C.3     
  13 C13            6.7930     4.9397     4.0742 C.3     
  14 C14            7.5169     6.2456     3.7403 C.3     
  15 C15            8.3527     6.6874     4.9433 C.3     
  16 C16            9.0766     7.9933     4.6093 C.3     
  17 C17            9.9125     8.4351     5.8123 C.3     
  18 C18           10.6364     9.7410     5.4784 C.3     
  19 O19            2.8432     1.6777     0.1394 O.2     
  20 C20           11.4596    10.1761     6.6633 C.ar    
  21 C21           12.7694     9.7520     6.7881 C.ar    
  22 C22           13.5245    10.1511     7.8750 C.ar    
  23 C23           12.9701    10.9748     8.8368 C.ar    
  24 C24           11.6606    11.3997     8.7115 C.ar    
  25 C25           10.9068    11.0041     7.6224 C.ar    
  26 N26            2.6130    -2.7242     0.2603 N.3     
  27 C27            2.5136    -4.1582     0.5634 C.3     
  28 C28            3.4441    -2.4939    -0.9289 C.3     
  29 H29            0.1017     1.1080     0.0483 H       
  30 H30           -0.5775    -0.3440     0.8221 H       
  31 H31            1.9634    -0.3241    -0.8656 H       
  32 H32            0.6518    -2.4033     0.9416 H       
  33 H33            0.8303    -2.4939    -0.8271 H       
  34 H34           -2.3382    -0.2850    -2.3594 H       
  35 H35            2.0695    -0.6190     2.0480 H       
  36 H36            3.0204     1.6003     3.1948 H       
  37 H37            4.4064     0.6728     2.5724 H       
  38 H38            5.0505     2.5943     1.1436 H       
  39 H39            3.6646     3.5217     1.7659 H       
  40 H40            4.5802     3.3479     4.0638 H       
  41 H41            5.9661     2.4205     3.4415 H       
  42 H42            6.6103     4.3420     2.0126 H       
  43 H43            5.2243     5.2694     2.6350 H       
  44 H44            6.1399     5.0956     4.9329 H       
  45 H45            7.5258     4.1682     4.3105 H       
  46 H46            8.1700     6.0897     2.8817 H       
  47 H47            6.7841     7.0171     3.5040 H       
  48 H48            7.6996     6.8433     5.8019 H       
  49 H49            9.0856     5.9159     5.1795 H       
  50 H50            9.7297     7.8374     3.7507 H       
  51 H51            8.3438     8.7648     4.3731 H       
  52 H52            9.2594     8.5910     6.6709 H       
  53 H53           10.6453     7.6636     6.0486 H       
  54 H54           11.2895     9.5851     4.6197 H       
  55 H55            9.9035    10.5125     5.2421 H       
  56 H56           13.2025     9.1084     6.0367 H       
  57 H57           14.5475     9.8191     7.9729 H       
  58 H58           13.5598    11.2860     9.6863 H       
  59 H59           11.2274    12.0429     9.4631 H       
  60 H60            9.8850    11.3390     7.5225 H       
  61 H61            2.0011    -4.6674    -0.2528 H       
  62 H62            3.5139    -4.5750     0.6807 H       
  63 H63            1.9519    -4.2961     1.4873 H       
  64 H64            3.5588    -1.4220    -1.0899 H       
  65 H65            4.4246    -2.9460    -0.7800 H       
  66 H66            2.9653    -2.9429    -1.7992 H       
@<TRIPOS>BOND
   1    1    2 1
   2    1    5 2
   3    1    6 1
   4    2    3 1
   5    2   29 1
   6    2   30 1
   7    3    4 1
   8    3    7 1
   9    3   31 1
  10    4   26 1
  11    4   32 1
  12    4   33 1
  13    6   34 1
  14    7    8 am
  15    7   35 1
  16    8    9 1
  17    8   19 2
  18    9   10 1
  19    9   36 1
  20    9   37 1
  21   10   11 1
  22   10   38 1
  23   10   39 1
  24   11   12 1
  25   11   40 1
  26   11   41 1
  27   12   13 1
  28   12   42 1
  29   12   43 1
  30   13   14 1
  31   13   44 1
  32   13   45 1
  33   14   15 1
  34   14   46 1
  35   14   47 1
  36   15   16 1
  37   15   48 1
  38   15   49 1
  39   16   17 1
  40   16   50 1
  41   16   51 1
  42   17   18 1
  43   17   52 1
  44   17   53 1
  45   18   20 1
  46   18   54 1
  47   18   55 1
  48   20   21 ar
  49   20   25 ar
  50   21   22 ar
  51   21   56 1
  52   22   23 ar
  53   22   57 1
  54   23   24 ar
  55   23   58 1
  56   24   25 ar
  57   24   59 1
  58   25   60 1
  59   26   27 1
  60   26   28 1
  61   27   61 1
  62   27   62 1
  63   27   63 1
  64   28   64 1
  65   28   65 1
  66   28   66 1

#	End of record

