#	Name: ASD08150001
#	Creating user name:	WinNT
#	Creation time:	15. 06. 2019 21:15

#	Modifying user name:	WinNT
#	Modification time:	15. 06. 2019 21:15

#	Program:	/corina/corina34_cracker 3.40 0067  02.08.2006

@<TRIPOS>MOLECULE
ASD08150001
  48   51    0    0    0
SMALL
NO_CHARGES


@<TRIPOS>ATOM
   1 O1            -0.0161     1.3334     0.0094 O.3     
   2 C2             0.0021    -0.0041     0.0020 C.2     
   3 N3             1.2348    -0.5293    -0.0126 N.am    
   4 C4             2.2183     0.5645    -0.0161 C.3     
   5 C5             1.3508     1.8379    -0.0010 C.3     
   6 O6            -1.0069    -0.6808     0.0084 O.2     
   7 C7             3.0750     0.5128    -1.2827 C.3     
   8 C8             3.0931    -3.5894     0.0537 C.ar    
   9 N9             2.1556    -4.5191    -0.0405 N.ar    
  10 C10            0.8687    -4.1833    -0.1300 C.ar    
  11 C11            0.5191    -2.8335    -0.1233 C.ar    
  12 C12            1.5353    -1.8872    -0.0227 C.ar    
  13 N13            2.7968    -2.2984     0.0630 N.ar    
  14 C14           -2.0648    -7.1227    -0.4259 C.ar    
  15 N15           -0.7932    -7.4881    -0.3387 N.ar    
  16 C16            0.1662    -6.5856    -0.2436 C.ar    
  17 C17           -0.1757    -5.2298    -0.2357 C.ar    
  18 C18           -1.5274    -4.8864    -0.3295 C.ar    
  19 N19           -2.4284    -5.8480    -0.4217 N.ar    
  20 C20            1.6086    -7.0108    -0.1445 C.3     
  21 F21            1.6962    -8.3997    -0.2873 F       
  22 F22            2.3483    -6.3903    -1.1569 F       
  23 F23            2.1202    -6.6371     1.1028 F       
  24 N24            4.4183    -3.9768     0.1507 N.3     
  25 C25            4.5419    -5.4416     0.1295 C.3     
  26 C26            6.0235    -5.8241     0.1785 C.3     
  27 O27            6.6214    -5.2471     1.3426 O.3     
  28 C28            6.5198    -3.8216     1.3955 C.3     
  29 C29            5.0433    -3.4188     1.3588 C.3     
  30 N30           -3.0382    -8.0984    -0.5298 N.pl3   
  31 H31            2.8457     0.5180     0.8740 H       
  32 H32            1.5314     2.4339    -0.8956 H       
  33 H33            1.5485     2.4243     0.8964 H       
  34 H34            2.4343     0.6108    -2.1590 H       
  35 H35            3.7964     1.3298    -1.2669 H       
  36 H36            3.6047    -0.4389    -1.3244 H       
  37 H37           -0.5148    -2.5295    -0.1947 H       
  38 H38           -1.8308    -3.8499    -0.3269 H       
  39 H39            4.0285    -5.8627     0.9938 H       
  40 H40            4.0955    -5.8313    -0.7854 H       
  41 H41            6.1181    -6.9091     0.2206 H       
  42 H42            6.5261    -5.4486    -0.7129 H       
  43 H43            6.9734    -3.4583     2.3177 H       
  44 H44            7.0368    -3.3878     0.5395 H       
  45 H45            4.9628    -2.3319     1.3413 H       
  46 H46            4.5378    -3.8076     2.2428 H       
  47 H47           -2.7869    -9.0352    -0.5382 H       
  48 H48           -3.9726    -7.8462    -0.5944 H       
@<TRIPOS>BOND
   1    1    2 1
   2    1    5 1
   3    2    3 am
   4    2    6 2
   5    3    4 1
   6    3   12 1
   7    4    5 1
   8    4    7 1
   9    4   31 1
  10    5   32 1
  11    5   33 1
  12    7   34 1
  13    7   35 1
  14    7   36 1
  15    8    9 ar
  16    8   13 ar
  17    8   24 1
  18    9   10 ar
  19   10   11 ar
  20   10   17 1
  21   11   12 ar
  22   11   37 1
  23   12   13 ar
  24   14   15 ar
  25   14   19 ar
  26   14   30 1
  27   15   16 ar
  28   16   17 ar
  29   16   20 1
  30   17   18 ar
  31   18   19 ar
  32   18   38 1
  33   20   21 1
  34   20   22 1
  35   20   23 1
  36   24   25 1
  37   24   29 1
  38   25   26 1
  39   25   39 1
  40   25   40 1
  41   26   27 1
  42   26   41 1
  43   26   42 1
  44   27   28 1
  45   28   29 1
  46   28   43 1
  47   28   44 1
  48   29   45 1
  49   29   46 1
  50   30   47 1
  51   30   48 1

#	End of record

