#	Name: ASD03330483
#	Creating user name:	WinNT
#	Creation time:	15. 06. 2019 20:37

#	Modifying user name:	WinNT
#	Modification time:	15. 06. 2019 20:37

#	Program:	/corina/corina34_cracker 3.40 0067  02.08.2006

@<TRIPOS>MOLECULE
ASD03330483
  73   75    0    0    0
SMALL
NO_CHARGES


@<TRIPOS>ATOM
   1 C1            -0.5219     2.5742    -2.5085 C.3     
   2 N2            -0.5576     1.2126    -1.9569 N.3     
   3 C3             0.1950     0.2729    -2.8076 C.3     
   4 C4             1.5497     0.8743    -3.0793 C.2     
   5 N5             1.8504     2.1875    -2.8641 N.pl3   
   6 C6             0.8857     3.1633    -2.3495 C.3     
   7 C7             2.6705     0.2794    -3.5592 C.2     
   8 N8             3.6382     1.2211    -3.6303 N.2     
   9 C9             3.1521     2.3708    -3.2130 C.2     
  10 C10            3.8928     3.6415    -3.1371 C.2     
  11 C11            2.8088    -1.1389    -3.9347 C.2     
  12 O12            1.8606    -1.8925    -3.8243 O.2     
  13 C13            4.1236    -3.0109    -4.7738 C.3     
  14 N14            3.9861    -1.6010    -4.4005 N.am    
  15 C15           -1.9414     0.7578    -1.7664 C.3     
  16 C16            4.4584    -3.8374    -3.5305 C.3     
  17 C17            3.2949    -3.7625    -2.5398 C.3     
  18 C18            4.6914    -5.2946    -3.9343 C.3     
  19 C19            5.7238    -3.2815    -2.8741 C.3     
  20 C20            5.2298    -3.1568    -5.7868 C.2     
  21 O21            6.0098    -2.2460    -5.9683 O.2     
  22 N22            5.3523    -4.2993    -6.4911 N.am    
  23 C23            6.4719    -4.4707    -7.4202 C.3     
  24 C24            3.2114     4.8201    -2.5051 C.3     
  25 C25            5.1136     3.6761    -3.6218 C.2     
  26 C26            5.9853     4.8978    -3.6032 C.3     
  27 C27            5.1369     6.1465    -3.3540 C.3     
  28 C28            4.2425     5.8878    -2.1335 C.3     
  29 C29            6.0507     7.3417    -3.0756 C.3     
  30 C30            6.9617     7.5789    -4.2818 C.3     
  31 C31            5.1988     8.5880    -2.8270 C.3     
  32 C32            6.9054     7.0533    -1.8398 C.3     
  33 H33           -0.7846     2.5437    -3.5659 H       
  34 H34           -1.2386     3.1996    -1.9762 H       
  35 H35            0.3115    -0.6797    -2.2908 H       
  36 H36           -0.3358     0.1205    -3.7474 H       
  37 H37            0.9626     4.0908    -2.9169 H       
  38 H38            1.0861     3.3582    -1.2960 H       
  39 H39            3.1873    -3.3657    -5.2046 H       
  40 H40            4.7424    -1.0000    -4.4885 H       
  41 H41           -2.4799     0.8268    -2.7116 H       
  42 H42           -1.9399    -0.2769    -1.4238 H       
  43 H43           -2.4312     1.3862    -1.0225 H       
  44 H44            2.3935    -4.1585    -3.0074 H       
  45 H45            3.5334    -4.3512    -1.6540 H       
  46 H46            3.1289    -2.7243    -2.2521 H       
  47 H47            5.4457    -5.3378    -4.7200 H       
  48 H48            5.0354    -5.8609    -3.0689 H       
  49 H49            3.7590    -5.7233    -4.3018 H       
  50 H50            5.5578    -2.2433    -2.5865 H       
  51 H51            5.9623    -3.8703    -1.9884 H       
  52 H52            6.5527    -3.3349    -3.5800 H       
  53 H53            4.6991    -5.0082    -6.3828 H       
  54 H54            6.4327    -3.6937    -8.1836 H       
  55 H55            7.4121    -4.3961    -6.8738 H       
  56 H56            6.4040    -5.4498    -7.8944 H       
  57 H57            2.4922     5.2412    -3.2076 H       
  58 H58            2.6875     4.4953    -1.6061 H       
  59 H59            5.5131     2.7728    -4.0587 H       
  60 H60            6.7268     4.8006    -2.8103 H       
  61 H61            6.4950     4.9927    -4.5621 H       
  62 H62            4.5191     6.3501    -4.2286 H       
  63 H63            3.7294     6.8079    -1.8539 H       
  64 H64            4.8519     5.5372    -1.3006 H       
  65 H65            6.3528     7.7844    -5.1622 H       
  66 H66            7.6127     8.4304    -4.0835 H       
  67 H67            7.5686     6.6910    -4.4589 H       
  68 H68            4.5498     8.4189    -1.9677 H       
  69 H69            5.8497     9.4394    -2.6287 H       
  70 H70            4.5898     8.7934    -3.7074 H       
  71 H71            7.5123     6.1654    -2.0170 H       
  72 H72            7.5564     7.9047    -1.6416 H       
  73 H73            6.2564     6.8842    -0.9806 H       
@<TRIPOS>BOND
   1    1    2 1
   2    1    6 1
   3    1   33 1
   4    1   34 1
   5    2    3 1
   6    2   15 1
   7    3    4 1
   8    3   35 1
   9    3   36 1
  10    4    5 1
  11    4    7 2
  12    5    6 1
  13    5    9 1
  14    6   37 1
  15    6   38 1
  16    7    8 1
  17    7   11 1
  18    8    9 2
  19    9   10 1
  20   10   24 1
  21   10   25 2
  22   11   12 2
  23   11   14 am
  24   13   14 1
  25   13   16 1
  26   13   20 1
  27   13   39 1
  28   14   40 1
  29   15   41 1
  30   15   42 1
  31   15   43 1
  32   16   17 1
  33   16   18 1
  34   16   19 1
  35   17   44 1
  36   17   45 1
  37   17   46 1
  38   18   47 1
  39   18   48 1
  40   18   49 1
  41   19   50 1
  42   19   51 1
  43   19   52 1
  44   20   21 2
  45   20   22 am
  46   22   23 1
  47   22   53 1
  48   23   54 1
  49   23   55 1
  50   23   56 1
  51   24   28 1
  52   24   57 1
  53   24   58 1
  54   25   26 1
  55   25   59 1
  56   26   27 1
  57   26   60 1
  58   26   61 1
  59   27   28 1
  60   27   29 1
  61   27   62 1
  62   28   63 1
  63   28   64 1
  64   29   30 1
  65   29   31 1
  66   29   32 1
  67   30   65 1
  68   30   66 1
  69   30   67 1
  70   31   68 1
  71   31   69 1
  72   31   70 1
  73   32   71 1
  74   32   72 1
  75   32   73 1

#	End of record

