#	Name: ASD03730216
#	Creating user name:	WinNT
#	Creation time:	15. 06. 2019 20:44

#	Modifying user name:	WinNT
#	Modification time:	15. 06. 2019 20:44

#	Program:	/corina/corina34_cracker 3.40 0067  02.08.2006

@<TRIPOS>MOLECULE
ASD03730216
  57   62    0    0    0
SMALL
NO_CHARGES


@<TRIPOS>ATOM
   1 O1            -0.4537     1.1377     1.2845 O.3     
   2 C2            -0.3841    -0.2986     1.3568 C.3     
   3 O3             0.6999    -0.6335     0.4704 O.3     
   4 C4             1.5199     0.4586     0.4674 C.ar    
   5 C5             0.8096     1.5477     0.9669 C.ar    
   6 C6             2.8370     0.6135     0.0737 C.ar    
   7 C7             3.4606     1.8537     0.1709 C.ar    
   8 C8             2.7382     2.9363     0.6636 C.ar    
   9 C9             1.4267     2.7837     1.0622 C.ar    
  10 O10            4.7382     2.2139    -0.1423 O.3     
  11 C11            3.6627     4.1236     0.6213 C.3     
  12 C12            4.8073     3.6459    -0.2828 C.3     
  13 N13            3.0938     6.3002     1.0214 N.am    
  14 C14            2.9898     5.3487     0.0723 C.2     
  15 C15            4.1520     4.5158     1.9835 C.ar    
  16 C16            4.8436     3.8467     2.9839 C.ar    
  17 C17            5.1588     4.5083     4.1704 C.ar    
  18 C18            4.7800     5.8251     4.3410 C.ar    
  19 C19            4.0931     6.4900     3.3457 C.ar    
  20 C20            3.7712     5.8421     2.1544 C.ar    
  21 O21            2.4579     5.4602    -1.0120 O.2     
  22 C22            2.5592     7.6570     0.8812 C.3     
  23 C23            1.1221     7.6955     1.4050 C.3     
  24 C24            0.5638     9.1125     1.2585 C.3     
  25 C25           -0.8733     9.1510     1.7823 C.3     
  26 C26           -1.4316    10.5680     1.6359 C.3     
  27 C27            5.2468     2.4318     2.7912 C.ar    
  28 C28            6.1403     2.0917     1.7774 C.ar    
  29 C29            6.5125     0.7748     1.6017 C.ar    
  30 C30            5.9992    -0.2089     2.4315 C.ar    
  31 C31            5.1102     0.1247     3.4404 C.ar    
  32 C32            4.7374     1.4400     3.6271 C.ar    
  33 F33            6.3663    -1.4972     2.2560 F       
  34 H34           -0.1607    -0.6206     2.3739 H       
  35 H35           -1.3155    -0.7452     1.0085 H       
  36 H36            3.3849    -0.2338    -0.3114 H       
  37 H37            0.8794     3.6304     1.4493 H       
  38 H38            5.7656     4.0241     0.0733 H       
  39 H39            4.6331     3.9423    -1.3172 H       
  40 H40            5.6965     3.9928     4.9524 H       
  41 H41            5.0232     6.3384     5.2596 H       
  42 H42            3.8023     7.5199     3.4912 H       
  43 H43            3.1737     8.3508     1.4549 H       
  44 H44            2.5706     7.9452    -0.1700 H       
  45 H45            0.5076     7.0018     0.8313 H       
  46 H46            1.1107     7.4073     2.4561 H       
  47 H47            1.1783     9.8063     1.8322 H       
  48 H48            0.5752     9.4007     0.2074 H       
  49 H49           -1.4878     8.4572     1.2086 H       
  50 H50           -0.8847     8.8628     2.8335 H       
  51 H51           -0.8171    11.2617     2.2095 H       
  52 H52           -1.4202    10.8562     0.5847 H       
  53 H53           -2.4554    10.5954     2.0090 H       
  54 H54            6.5406     2.8578     1.1300 H       
  55 H55            7.2047     0.5103     0.8160 H       
  56 H56            4.7121    -0.6452     4.0848 H       
  57 H57            4.0484     1.6999     4.4171 H       
@<TRIPOS>BOND
   1    1    2 1
   2    1    5 1
   3    2    3 1
   4    2   34 1
   5    2   35 1
   6    3    4 1
   7    4    5 ar
   8    4    6 ar
   9    5    9 ar
  10    6    7 ar
  11    6   36 1
  12    7    8 ar
  13    7   10 1
  14    8    9 ar
  15    8   11 1
  16    9   37 1
  17   10   12 1
  18   11   12 1
  19   11   14 1
  20   11   15 1
  21   12   38 1
  22   12   39 1
  23   13   14 am
  24   13   20 1
  25   13   22 1
  26   14   21 2
  27   15   16 ar
  28   15   20 ar
  29   16   17 ar
  30   16   27 1
  31   17   18 ar
  32   17   40 1
  33   18   19 ar
  34   18   41 1
  35   19   20 ar
  36   19   42 1
  37   22   23 1
  38   22   43 1
  39   22   44 1
  40   23   24 1
  41   23   45 1
  42   23   46 1
  43   24   25 1
  44   24   47 1
  45   24   48 1
  46   25   26 1
  47   25   49 1
  48   25   50 1
  49   26   51 1
  50   26   52 1
  51   26   53 1
  52   27   28 ar
  53   27   32 ar
  54   28   29 ar
  55   28   54 1
  56   29   30 ar
  57   29   55 1
  58   30   31 ar
  59   30   33 1
  60   31   32 ar
  61   31   56 1
  62   32   57 1

#	End of record

