#	Name: ASD01913053
#	Creating user name:	WinNT
#	Creation time:	15. 06. 2019 20:00

#	Modifying user name:	WinNT
#	Modification time:	15. 06. 2019 20:00

#	Program:	/corina/corina34_cracker 3.40 0067  02.08.2006

@<TRIPOS>MOLECULE
ASD01913053
  29   30    0    0    0
SMALL
NO_CHARGES


@<TRIPOS>ATOM
   1 C1            -0.0169     1.3945     0.0097 C.ar    
   2 C2             0.0021    -0.0041     0.0020 C.ar    
   3 C3            -1.2601    -0.7608     0.0095 C.2     
   4 C4            -1.2354    -2.2676     0.0012 C.3     
   5 O5            -2.3200    -0.1720     0.0224 O.2     
   6 C6            -2.6477    -2.7933     0.0113 C.2     
   7 C7            -2.8928    -4.2444     0.0058 C.ar    
   8 O8            -3.5821    -2.0207     0.0240 O.2     
   9 C9            -4.2019    -4.7361     0.0151 C.ar    
  10 C10            1.2262    -0.6796    -0.0133 C.ar    
  11 C11            2.4056     0.0375    -0.0207 C.ar    
  12 C12            2.3777     1.4221    -0.0125 C.ar    
  13 C13            1.1694     2.0970     0.0022 C.ar    
  14 Cl14           3.9271    -0.7981    -0.0397 Cl      
  15 C15           -4.4233    -6.0971     0.0093 C.ar    
  16 C16           -3.3541    -6.9758    -0.0052 C.ar    
  17 C17           -2.0555    -6.4969    -0.0141 C.ar    
  18 C18           -1.8177    -5.1387    -0.0148 C.ar    
  19 H19           -0.9587     1.9230     0.0171 H       
  20 H20           -0.7238    -2.6176    -0.8954 H       
  21 H21           -0.7075    -2.6272     0.8845 H       
  22 H22           -5.0373    -4.0517     0.0272 H       
  23 H23            1.2488    -1.7593    -0.0190 H       
  24 H24            3.3036     1.9782    -0.0177 H       
  25 H25            1.1558     3.1769     0.0081 H       
  26 H26           -5.4337    -6.4784     0.0166 H       
  27 H27           -3.5339    -8.0407    -0.0093 H       
  28 H28           -1.2264    -7.1889    -0.0247 H       
  29 H29           -0.8039    -4.7665    -0.0216 H       
@<TRIPOS>BOND
   1    1    2 ar
   2    1   13 ar
   3    1   19 1
   4    2    3 1
   5    2   10 ar
   6    3    4 1
   7    3    5 2
   8    4    6 1
   9    4   20 1
  10    4   21 1
  11    6    7 1
  12    6    8 2
  13    7    9 ar
  14    7   18 ar
  15    9   15 ar
  16    9   22 1
  17   10   11 ar
  18   10   23 1
  19   11   12 ar
  20   11   14 1
  21   12   13 ar
  22   12   24 1
  23   13   25 1
  24   15   16 ar
  25   15   26 1
  26   16   17 ar
  27   16   27 1
  28   17   18 ar
  29   17   28 1
  30   18   29 1

#	End of record

