#	Name: ASD01870377
#	Creating user name:	WinNT
#	Creation time:	15. 06. 2019 19:39

#	Modifying user name:	WinNT
#	Modification time:	15. 06. 2019 19:39

#	Program:	/corina/corina34_cracker 3.40 0067  02.08.2006

@<TRIPOS>MOLECULE
ASD01870377
  53   57    0    0    0
SMALL
NO_CHARGES


@<TRIPOS>ATOM
   1 N1            -0.0179     1.4666     0.0101 N.am    
   2 C2             0.0021    -0.0041     0.0020 C.3     
   3 C3             1.1293     2.1740     0.0030 C.2     
   4 C4             1.0857     3.6803     0.0115 C.3     
   5 O5             2.1967     1.5983    -0.0103 O.2     
   6 C6             2.4763     4.3407     0.0017 C.3     
   7 N7             1.9076     5.2908    -0.9739 N.am    
   8 C8             0.8907     4.3026    -1.3830 C.3     
   9 S9             2.2664     6.8425    -1.4275 S.o2    
  10 C10            3.4250     6.7442    -2.7514 C.ar    
  11 O11            1.0740     7.3858    -1.9773 O.2     
  12 O12            2.9563     7.4310    -0.3334 O.2     
  13 C13           -0.8911    -0.5093     1.1401 C.3     
  14 N14           -2.2246     0.0945     1.0166 N.3     
  15 C15           -2.1639     1.5549     1.1634 C.3     
  16 C16           -1.3229     2.1448     0.0200 C.3     
  17 C17            4.7025     6.2084    -2.5341 C.ar    
  18 C18           -3.1071    -0.4599     1.9294 C.ar    
  19 N19           -2.7039    -1.4105     2.7671 N.ar    
  20 C20           -4.4331    -0.0253     1.9882 C.ar    
  21 C21           -5.2734    -0.6088     2.9155 C.ar    
  22 N22           -4.7985    -1.5550     3.7136 N.ar    
  23 C23           -3.5406    -1.9396     3.6368 C.ar    
  24 C24            3.0848     7.1830    -3.9953 C.ar    
  25 C25            3.9886     7.1124    -5.0539 C.ar    
  26 C26            5.2391     6.6029    -4.8780 C.ar    
  27 C27            5.6239     6.1365    -3.6112 C.ar    
  28 C28            6.8995     5.6014    -3.3692 C.ar    
  29 N29            7.2138     5.1781    -2.1673 N.ar    
  30 C30            6.3711     5.2300    -1.1448 C.ar    
  31 C31            5.1127     5.7336    -1.2749 C.ar    
  32 H32           -0.3779    -0.3702    -0.9518 H       
  33 H33            1.0222    -0.3573     0.1528 H       
  34 H34            0.4145     4.0817     0.7708 H       
  35 H35            2.7518     4.7987     0.9517 H       
  36 H36            3.2612     3.7060    -0.4094 H       
  37 H37            1.2098     3.6567    -2.2009 H       
  38 H38           -0.0998     4.7302    -1.5387 H       
  39 H39           -0.9763    -1.5943     1.0813 H       
  40 H40           -0.4526    -0.2298     2.0981 H       
  41 H41           -3.1722     1.9669     1.1215 H       
  42 H42           -1.7077     1.8056     2.1210 H       
  43 H43           -1.1778     3.2123     0.1853 H       
  44 H44           -1.8328     1.9844    -0.9299 H       
  45 H45           -4.7921     0.7480     1.3253 H       
  46 H46           -6.3050    -0.2980     2.9901 H       
  47 H47           -3.1866    -2.7132     4.3022 H       
  48 H48            2.0994     7.5917    -4.1639 H       
  49 H49            3.6922     7.4673    -6.0299 H       
  50 H50            5.9284     6.5543    -5.7080 H       
  51 H51            7.6205     5.5379    -4.1708 H       
  52 H52            6.6929     4.8646    -0.1807 H       
  53 H53            4.4423     5.7664    -0.4287 H       
@<TRIPOS>BOND
   1    1    2 1
   2    1    3 am
   3    1   16 1
   4    2   13 1
   5    2   32 1
   6    2   33 1
   7    3    4 1
   8    3    5 2
   9    4    6 1
  10    4    8 1
  11    4   34 1
  12    6    7 1
  13    6   35 1
  14    6   36 1
  15    7    8 1
  16    7    9 am
  17    8   37 1
  18    8   38 1
  19    9   10 1
  20    9   11 2
  21    9   12 2
  22   10   24 ar
  23   10   17 ar
  24   13   14 1
  25   13   39 1
  26   13   40 1
  27   14   15 1
  28   14   18 1
  29   15   16 1
  30   15   41 1
  31   15   42 1
  32   16   43 1
  33   16   44 1
  34   17   27 ar
  35   17   31 ar
  36   18   19 ar
  37   18   20 ar
  38   19   23 ar
  39   20   21 ar
  40   20   45 1
  41   21   22 ar
  42   21   46 1
  43   22   23 ar
  44   23   47 1
  45   24   25 ar
  46   24   48 1
  47   25   26 ar
  48   25   49 1
  49   26   27 ar
  50   26   50 1
  51   27   28 ar
  52   28   29 ar
  53   28   51 1
  54   29   30 ar
  55   30   31 ar
  56   30   52 1
  57   31   53 1

#	End of record

