#	Name: ASD04910309
#	Creating user name:	WinNT
#	Creation time:	15. 06. 2019 20:55

#	Modifying user name:	WinNT
#	Modification time:	15. 06. 2019 20:55

#	Program:	/corina/corina34_cracker 3.40 0067  02.08.2006

@<TRIPOS>MOLECULE
ASD04910309
  59   62    0    0    0
SMALL
NO_CHARGES


@<TRIPOS>ATOM
   1 C1            -0.2698     1.4345     0.2410 C.2     
   2 C2            -0.2093    -0.0708     0.2048 C.3     
   3 C3             1.2516    -0.5212     0.1431 C.3     
   4 O4             0.7509     2.0808     0.2196 O.2     
   5 O5            -1.4577     2.0575     0.2914 O.3     
   6 C6             2.5029    -2.6100     0.0517 C.2     
   7 C7             2.5622    -4.0869     0.0162 C.ar    
   8 C8             3.7956    -4.7376    -0.0421 C.ar    
   9 C9             3.8439    -6.1160    -0.0745 C.ar    
  10 C10            2.6733    -6.8531    -0.0498 C.ar    
  11 C11            1.4474    -6.2142     0.0079 C.ar    
  12 C12            1.3852    -4.8365     0.0466 C.ar    
  13 O13            3.5297    -1.9598     0.0302 O.2     
  14 N14            1.3103    -1.9846     0.1079 N.am    
  15 C15            2.7337    -8.3584    -0.0864 C.3     
  16 C16            2.5544    -8.9106     1.3291 C.3     
  17 C17            2.7397   -10.4293     1.3114 C.3     
  18 C18            2.5604   -10.9815     2.7269 C.3     
  19 O19            1.6915    -8.8566    -0.9276 O.3     
  20 C20            1.9544    -9.9905    -1.6305 C.ar    
  21 C21            3.2167   -10.5633    -1.5754 C.ar    
  22 C22            3.4843   -11.7150    -2.2885 C.ar    
  23 C23            2.4895   -12.2999    -3.0609 C.ar    
  24 C24            1.2262   -11.7260    -3.1156 C.ar    
  25 C25            0.9586   -10.5772    -2.3977 C.ar    
  26 N26            1.6355   -15.9257    -5.9229 N.2     
  27 N27            2.5325   -15.2266    -5.1061 N.pl3   
  28 C28            1.8723   -14.1542    -4.5900 C.2     
  29 C29            0.5870   -14.1889    -5.0796 C.2     
  30 C30            0.4794   -15.3058    -5.9049 C.2     
  31 N31            2.7605   -13.4686    -3.7853 N.pl3   
  32 C32            3.9665   -14.1447    -3.8246 C.2     
  33 C33            3.8293   -15.2020    -4.6194 C.2     
  34 H34           -0.6765    -0.4749     1.1029 H       
  35 H35           -0.7392    -0.4347    -0.6755 H       
  36 H36            1.7187    -0.1172    -0.7550 H       
  37 H37            1.7815    -0.1574     1.0234 H       
  38 H38           -1.4458     3.0242     0.3131 H       
  39 H39            4.7100    -4.1634    -0.0621 H       
  40 H40            4.7976    -6.6208    -0.1195 H       
  41 H41            0.5372    -6.7953     0.0269 H       
  42 H42            0.4279    -4.3391     0.0962 H       
  43 H43            0.4909    -2.5035     0.1251 H       
  44 H44            3.7001    -8.6738    -0.4798 H       
  45 H45            3.2953    -8.4619     1.9907 H       
  46 H46            1.5537    -8.6709     1.6886 H       
  47 H47            1.9987   -10.8780     0.6498 H       
  48 H48            3.7404   -10.6690     0.9519 H       
  49 H49            3.3013   -10.5328     3.3885 H       
  50 H50            1.5597   -10.7417     3.0864 H       
  51 H51            2.6924   -12.0634     2.7143 H       
  52 H52            3.9903   -10.1081    -0.9749 H       
  53 H53            4.4672   -12.1606    -2.2458 H       
  54 H54            0.4520   -12.1803    -3.7161 H       
  55 H55           -0.0251   -10.1330    -2.4368 H       
  56 H56           -0.1971   -13.4785    -4.8628 H       
  57 H57           -0.4075   -15.6106    -6.4405 H       
  58 H58            4.8667   -13.8619    -3.2993 H       
  59 H59            4.6009   -15.9225    -4.8471 H       
@<TRIPOS>BOND
   1    1    2 1
   2    1    4 2
   3    1    5 1
   4    2    3 1
   5    2   34 1
   6    2   35 1
   7    3   14 1
   8    3   36 1
   9    3   37 1
  10    5   38 1
  11    6    7 1
  12    6   13 2
  13    6   14 am
  14    7    8 ar
  15    7   12 ar
  16    8    9 ar
  17    8   39 1
  18    9   10 ar
  19    9   40 1
  20   10   11 ar
  21   10   15 1
  22   11   12 ar
  23   11   41 1
  24   12   42 1
  25   14   43 1
  26   15   16 1
  27   15   19 1
  28   15   44 1
  29   16   17 1
  30   16   45 1
  31   16   46 1
  32   17   18 1
  33   17   47 1
  34   17   48 1
  35   18   49 1
  36   18   50 1
  37   18   51 1
  38   19   20 1
  39   20   21 ar
  40   20   25 ar
  41   21   22 ar
  42   21   52 1
  43   22   23 ar
  44   22   53 1
  45   23   24 ar
  46   23   31 1
  47   24   25 ar
  48   24   54 1
  49   25   55 1
  50   26   27 1
  51   26   30 2
  52   27   28 1
  53   27   33 1
  54   28   29 2
  55   28   31 1
  56   29   30 1
  57   29   56 1
  58   30   57 1
  59   31   32 1
  60   32   33 2
  61   32   58 1
  62   33   59 1

#	End of record

