#	Name: ASD01915653
#	Creating user name:	WinNT
#	Creation time:	15. 06. 2019 20:05

#	Modifying user name:	WinNT
#	Modification time:	15. 06. 2019 20:05

#	Program:	/corina/corina34_cracker 3.40 0067  02.08.2006

@<TRIPOS>MOLECULE
ASD01915653
  47   50    0    0    0
SMALL
NO_CHARGES


@<TRIPOS>ATOM
   1 C1            -0.0166     1.3728     0.0096 C.2     
   2 N2             0.0021    -0.0041     0.0020 N.pl3   
   3 C3            -1.2434    -0.7807    -0.0179 C.3     
   4 C4            -2.3411     0.0067     0.6955 C.3     
   5 N5            -2.4044     1.3988     0.2637 N.am    
   6 C6            -1.2813     2.1228     0.0392 C.2     
   7 C7             1.2845     1.7904    -0.0006 C.2     
   8 C8             2.0437     0.6124    -0.0024 C.2     
   9 N9             1.2133    -0.4042     0.0045 N.2     
  10 C10            3.5482     0.5278    -0.0111 C.3     
  11 O11            4.0995     1.8462    -0.0174 O.3     
  12 C12            5.4546     1.9483    -0.0257 C.ar    
  13 O13           -1.3171     3.3271    -0.1281 O.2     
  14 C14            6.0572     3.1979    -0.0322 C.ar    
  15 C15            6.2377     0.8031    -0.0220 C.ar    
  16 C16            7.6150     0.9096    -0.0305 C.ar    
  17 C17            8.2132     2.1561    -0.0427 C.ar    
  18 C18            7.4349     3.2990    -0.0407 C.ar    
  19 C19           -3.6531     1.9997     0.0767 C.ar    
  20 C20           -4.2751     2.6547     1.1315 C.ar    
  21 C21           -4.2716     1.9476    -1.1661 C.ar    
  22 C22           -5.5047     2.5420    -1.3474 C.ar    
  23 C23           -6.1241     3.1887    -0.2933 C.ar    
  24 C24           -5.5086     3.2472     0.9435 C.ar    
  25 C25           -2.0779    -0.0321     2.2021 C.3     
  26 C26           -3.5973     1.2437    -2.3153 C.3     
  27 H27           -1.5404    -0.9656    -1.0502 H       
  28 H28           -1.0875    -1.7314     0.4921 H       
  29 H29           -3.3017    -0.4681     0.4955 H       
  30 H30            1.6485     2.8071    -0.0061 H       
  31 H31            3.8874    -0.0036     0.8781 H       
  32 H32            3.8769    -0.0077    -0.9018 H       
  33 H33            5.4498     4.0908    -0.0310 H       
  34 H34            5.7710    -0.1708    -0.0121 H       
  35 H35            8.2251     0.0184    -0.0272 H       
  36 H36            9.2901     2.2372    -0.0493 H       
  37 H37            7.9045     4.2715    -0.0506 H       
  38 H38           -3.7951     2.7005     2.0979 H       
  39 H39           -5.9859     2.5022    -2.3134 H       
  40 H40           -7.0884     3.6531    -0.4378 H       
  41 H41           -5.9951     3.7527     1.7646 H       
  42 H42           -1.1066     0.4154     2.4129 H       
  43 H43           -2.8560     0.5273     2.7215 H       
  44 H44           -2.0835    -1.0666     2.5455 H       
  45 H45           -3.8968     0.1957    -2.3256 H       
  46 H46           -3.8915     1.7149    -3.2531 H       
  47 H47           -2.5156     1.3112    -2.1985 H       
@<TRIPOS>BOND
   1    1    2 1
   2    1    7 2
   3    1    6 1
   4    2    3 1
   5    2    9 1
   6    3    4 1
   7    3   27 1
   8    3   28 1
   9    4    5 1
  10    4   25 1
  11    4   29 1
  12    5    6 am
  13    5   19 1
  14    6   13 2
  15    7    8 1
  16    7   30 1
  17    8    9 2
  18    8   10 1
  19   10   11 1
  20   10   31 1
  21   10   32 1
  22   11   12 1
  23   12   14 ar
  24   12   15 ar
  25   14   18 ar
  26   14   33 1
  27   15   16 ar
  28   15   34 1
  29   16   17 ar
  30   16   35 1
  31   17   18 ar
  32   17   36 1
  33   18   37 1
  34   19   20 ar
  35   19   21 ar
  36   20   24 ar
  37   20   38 1
  38   21   22 ar
  39   21   26 1
  40   22   23 ar
  41   22   39 1
  42   23   24 ar
  43   23   40 1
  44   24   41 1
  45   25   42 1
  46   25   43 1
  47   25   44 1
  48   26   45 1
  49   26   46 1
  50   26   47 1

#	End of record

