#	Name: ASD01209415
#	Creating user name:	WinNT
#	Creation time:	15. 06. 2019 19:11

#	Modifying user name:	WinNT
#	Modification time:	15. 06. 2019 19:11

#	Program:	/corina/corina34_cracker 3.40 0067  02.08.2006

@<TRIPOS>MOLECULE
ASD01209415
  54   56    0    0    0
SMALL
NO_CHARGES


@<TRIPOS>ATOM
   1 C1             0.1452     1.4452    -0.4272 C.2     
   2 C2             0.0873    -0.0606    -0.4158 C.3     
   3 C3             0.2100    -0.5866    -1.8473 C.3     
   4 O4             1.1999     2.0130    -0.2372 O.2     
   5 N5            -0.9740     2.1609    -0.6542 N.am    
   6 C6            -0.9422     3.5518    -0.5646 C.ar    
   7 C7            -2.0708     4.2898    -0.9031 C.ar    
   8 C8            -2.0256     5.6695    -0.8097 C.ar    
   9 C9            -0.8482     6.2660    -0.3791 C.ar    
  10 C10            0.2346     5.4711    -0.0594 C.ar    
  11 N11            0.1604     4.1572    -0.1531 N.ar    
  12 S12            1.4526    -0.7106     0.5864 S.3     
  13 N13            2.2994    -3.2433     0.9792 N.am    
  14 C14            1.0775    -2.4826     0.6867 C.3     
  15 C15            0.1381    -2.7521     1.8391 C.2     
  16 C16            0.7713    -3.5700     2.6739 C.2     
  17 C17            2.1061    -3.8781     2.1506 C.2     
  18 O18            2.9187    -4.6012     2.6945 O.2     
  19 C19            0.2025    -4.1013     3.9644 C.3     
  20 C20           -1.2529    -2.1980     2.0099 C.3     
  21 C21            3.5035    -3.3049     0.1471 C.3     
  22 C22            4.4500    -2.2039     0.5508 C.ar    
  23 C23            5.3965    -2.4328     1.5324 C.ar    
  24 C24            6.2653    -1.4252     1.9043 C.ar    
  25 C25            6.1875    -0.1828     1.2920 C.ar    
  26 C26            5.2370     0.0444     0.3074 C.ar    
  27 C27            4.3742    -0.9682    -0.0649 C.ar    
  28 O28            7.0408     0.8102     1.6564 O.3     
  29 C29            6.9030     2.0634     0.9835 C.3     
  30 H30           -0.8623    -0.3845     0.0102 H       
  31 H31            0.1682    -1.6758    -1.8390 H       
  32 H32           -0.6103    -0.1960    -2.4494 H       
  33 H33            1.1597    -0.2627    -2.2732 H       
  34 H34           -1.8017     1.7083    -0.8799 H       
  35 H35           -2.9705     3.7929    -1.2348 H       
  36 H36           -2.8866     6.2689    -1.0662 H       
  37 H37           -0.7797     7.3406    -0.2955 H       
  38 H38            1.1528     5.9306     0.2757 H       
  39 H39            0.6354    -2.8264    -0.2485 H       
  40 H40           -0.3183    -5.0395     3.7728 H       
  41 H41            1.0115    -4.2733     4.6744 H       
  42 H42           -0.4969    -3.3756     4.3792 H       
  43 H43           -1.9783    -2.9093     1.6150 H       
  44 H44           -1.4492    -2.0290     3.0687 H       
  45 H45           -1.3373    -1.2551     1.4697 H       
  46 H46            3.9903    -4.2706     0.2833 H       
  47 H47            3.2281    -3.1813    -0.9003 H       
  48 H48            5.4565    -3.4001     2.0090 H       
  49 H49            7.0042    -1.6044     2.6713 H       
  50 H50            5.1744     1.0108    -0.1708 H       
  51 H51            3.6371    -0.7933    -0.8347 H       
  52 H52            7.0592     1.9207    -0.0858 H       
  53 H53            5.9022     2.4597     1.1548 H       
  54 H54            7.6426     2.7656     1.3682 H       
@<TRIPOS>BOND
   1    1    2 1
   2    1    4 2
   3    1    5 am
   4    2    3 1
   5    2   12 1
   6    2   30 1
   7    3   31 1
   8    3   32 1
   9    3   33 1
  10    5    6 1
  11    5   34 1
  12    6    7 ar
  13    6   11 ar
  14    7    8 ar
  15    7   35 1
  16    8    9 ar
  17    8   36 1
  18    9   10 ar
  19    9   37 1
  20   10   11 ar
  21   10   38 1
  22   12   14 1
  23   13   14 1
  24   13   17 am
  25   13   21 1
  26   14   15 1
  27   14   39 1
  28   15   16 2
  29   15   20 1
  30   16   17 1
  31   16   19 1
  32   17   18 2
  33   19   40 1
  34   19   41 1
  35   19   42 1
  36   20   43 1
  37   20   44 1
  38   20   45 1
  39   21   22 1
  40   21   46 1
  41   21   47 1
  42   22   23 ar
  43   22   27 ar
  44   23   24 ar
  45   23   48 1
  46   24   25 ar
  47   24   49 1
  48   25   26 ar
  49   25   28 1
  50   26   27 ar
  51   26   50 1
  52   27   51 1
  53   28   29 1
  54   29   52 1
  55   29   53 1
  56   29   54 1

#	End of record

