#	Name: ASD01840277
#	Creating user name:	WinNT
#	Creation time:	15. 06. 2019 19:37

#	Modifying user name:	WinNT
#	Modification time:	15. 06. 2019 19:37

#	Program:	/corina/corina34_cracker 3.40 0067  02.08.2006

@<TRIPOS>MOLECULE
ASD01840277
  43   45    0    0    0
SMALL
NO_CHARGES


@<TRIPOS>ATOM
   1 C1            -0.7161    -1.8162    -1.1036 C.3     
   2 O2            -0.8511    -3.1707    -0.6687 O.3     
   3 C3            -0.1690    -3.5304     0.4509 C.ar    
   4 C4             0.6089    -2.5981     1.1197 C.ar    
   5 C5             1.3013    -2.9657     2.2581 C.ar    
   6 C6             1.2193    -4.2619     2.7309 C.ar    
   7 C7             1.9757    -4.6589     3.9724 C.3     
   8 N8             1.1330    -4.4359     5.1499 N.am    
   9 C9             1.6041    -4.7223     6.3797 C.2     
  10 O10            2.7288    -5.1658     6.5120 O.2     
  11 C11            0.7575    -4.4983     7.5626 C.2     
  12 S12           -0.8814    -3.8724     7.5119 S.3     
  13 C13           -1.0245    -3.9619     9.2629 C.ar    
  14 N14           -2.0311    -3.6470    10.0779 N.ar    
  15 N15           -1.9459    -3.7838    11.3494 N.ar    
  16 C16           -0.8593    -4.2450    11.9449 C.ar    
  17 C17           -0.8294    -4.3796    13.4456 C.3     
  18 C18            0.2366    -4.6009    11.2106 C.ar    
  19 C19            1.4794    -5.1284    11.8800 C.3     
  20 C20            0.1720    -4.4602     9.8027 C.ar    
  21 C21            1.1301    -4.7494     8.8223 C.2     
  22 C22            2.4901    -5.3012     9.1643 C.3     
  23 C23            0.4440    -5.1952     2.0671 C.ar    
  24 C24           -0.2547    -4.8317     0.9303 C.ar    
  25 F25           -1.0159    -5.7419     0.2842 F       
  26 H26            0.3317    -1.6065    -1.3190 H       
  27 H27           -1.3100    -1.6630    -2.0047 H       
  28 H28           -1.0669    -1.1459    -0.3189 H       
  29 H29            0.6742    -1.5850     0.7512 H       
  30 H30            1.9076    -2.2392     2.7787 H       
  31 H31            2.2445    -5.7135     3.9125 H       
  32 H32            2.8809    -4.0573     4.0543 H       
  33 H33            0.2360    -4.0822     5.0443 H       
  34 H34           -1.1856    -5.3701    13.7287 H       
  35 H35            0.1918    -4.2451    13.8022 H       
  36 H36           -1.4727    -3.6210    13.8914 H       
  37 H37            1.4656    -6.2182    11.8647 H       
  38 H38            2.3597    -4.7687    11.3472 H       
  39 H39            1.5119    -4.7799    12.9123 H       
  40 H40            3.1661    -4.4800     9.4021 H       
  41 H41            2.4070    -5.9645    10.0253 H       
  42 H42            2.8807    -5.8585     8.3128 H       
  43 H43            0.3812    -6.2073     2.4387 H       
@<TRIPOS>BOND
   1    1    2 1
   2    1   26 1
   3    1   27 1
   4    1   28 1
   5    2    3 1
   6    3   24 ar
   7    3    4 ar
   8    4    5 ar
   9    4   29 1
  10    5    6 ar
  11    5   30 1
  12    6    7 1
  13    6   23 ar
  14    7    8 1
  15    7   31 1
  16    7   32 1
  17    8    9 am
  18    8   33 1
  19    9   10 2
  20    9   11 1
  21   11   21 2
  22   11   12 1
  23   12   13 1
  24   13   20 ar
  25   13   14 ar
  26   14   15 ar
  27   15   16 ar
  28   16   17 1
  29   16   18 ar
  30   17   34 1
  31   17   35 1
  32   17   36 1
  33   18   19 1
  34   18   20 ar
  35   19   37 1
  36   19   38 1
  37   19   39 1
  38   20   21 1
  39   21   22 1
  40   22   40 1
  41   22   41 1
  42   22   42 1
  43   23   24 ar
  44   23   43 1
  45   24   25 1

#	End of record

