#	Name: ASD01028745
#	Creating user name:	WinNT
#	Creation time:	15. 06. 2019 18:58

#	Modifying user name:	WinNT
#	Modification time:	15. 06. 2019 18:58

#	Program:	/corina/corina34_cracker 3.40 0067  02.08.2006

@<TRIPOS>MOLECULE
ASD01028745
  32   34    0    0    0
SMALL
NO_CHARGES


@<TRIPOS>ATOM
   1 C1            -0.0184     1.5028     0.0103 C.2     
   2 C2             0.0021    -0.0041     0.0020 C.3     
   3 O3             1.0197     2.1211     0.0037 O.2     
   4 O4            -1.1898     2.1580     0.0194 O.3     
   5 C5             2.3078    -0.6786     1.1465 C.ar    
   6 C6             3.5279    -1.1380     0.6163 C.ar    
   7 C7             4.5782    -1.4193     1.4846 C.ar    
   8 C8             4.3797    -1.2354     2.8393 C.ar    
   9 C9             3.1420    -0.7760     3.2995 C.ar    
  10 N10            2.1553    -0.5144     2.4532 N.ar    
  11 O11            3.3864    -1.2059    -0.7217 O.3     
  12 C12            1.4295    -0.4870    -0.0142 C.2     
  13 C13            2.1537    -0.8204    -1.0922 C.2     
  14 O14            3.8217    -0.7975     5.7332 O.3     
  15 N15            3.3526    -0.5459     6.8186 N.2     
  16 C16            2.1193    -0.1359     6.7325 C.2     
  17 C17            1.7881    -0.1410     5.3614 C.2     
  18 C18            2.9302    -0.5799     4.7496 C.2     
  19 C19            1.2217     0.2656     7.8744 C.3     
  20 C20           -1.1335     3.6089     0.0270 C.3     
  21 H21           -0.4983    -0.3791     0.8948 H       
  22 H22           -0.5153    -0.3696    -0.8850 H       
  23 H23            5.5265    -1.7736     1.1083 H       
  24 H24            5.1755    -1.4454     3.5385 H       
  25 H25            1.7966    -0.7873    -2.1109 H       
  26 H26            0.8510     0.1363     4.9018 H       
  27 H27            1.3333     1.3327     8.0665 H       
  28 H28            0.1853     0.0495     7.6152 H       
  29 H29            1.4973    -0.2951     8.7676 H       
  30 H30           -0.6017     3.9472     0.9164 H       
  31 H31           -0.6102     3.9569    -0.8636 H       
  32 H32           -2.1463     4.0118     0.0340 H       
@<TRIPOS>BOND
   1    1    2 1
   2    1    3 2
   3    1    4 1
   4    2   12 1
   5    2   21 1
   6    2   22 1
   7    4   20 1
   8    5    6 ar
   9    5   10 ar
  10    5   12 1
  11    6    7 ar
  12    6   11 1
  13    7    8 ar
  14    7   23 1
  15    8    9 ar
  16    8   24 1
  17    9   10 ar
  18    9   18 1
  19   11   13 1
  20   12   13 2
  21   13   25 1
  22   14   15 1
  23   14   18 1
  24   15   16 2
  25   16   17 1
  26   16   19 1
  27   17   18 2
  28   17   26 1
  29   19   27 1
  30   19   28 1
  31   19   29 1
  32   20   30 1
  33   20   31 1
  34   20   32 1

#	End of record

