#	Name: ASD06020008
#	Creating user name:	WinNT
#	Creation time:	15. 06. 2019 21:04

#	Modifying user name:	WinNT
#	Modification time:	15. 06. 2019 21:04

#	Program:	/corina/corina34_cracker 3.40 0067  02.08.2006

@<TRIPOS>MOLECULE
ASD06020008
  33   35    0    0    0
SMALL
NO_CHARGES


@<TRIPOS>ATOM
   1 N1            -0.0162     1.3436     0.0094 N.am    
   2 C2             0.0021    -0.0041     0.0020 C.2     
   3 O3             1.0631    -0.5976    -0.0113 O.2     
   4 N4            -1.1558    -0.6938     0.0094 N.am    
   5 C5            -1.1360    -2.1586     0.0013 C.3     
   6 C6             1.1815     2.0569     0.0018 C.ar    
   7 C7             1.1582     3.4552     0.0096 C.ar    
   8 C8             2.3647     4.1658     0.0023 C.ar    
   9 C9             3.5611     3.4047    -0.0132 C.ar    
  10 C10            3.4918     2.0473    -0.0202 C.ar    
  11 N11            2.3325     1.4084    -0.0071 N.ar    
  12 S12           -0.1668     4.6135     0.0285 S.3     
  13 C13            0.9837     5.9441     0.0253 C.2     
  14 N14            2.1942     5.4881     0.0114 N.2     
  15 C15            0.6201     7.3759     0.0368 C.ar    
  16 C16            1.6213     8.3517     0.0330 C.ar    
  17 C17            1.2820     9.6867     0.0433 C.ar    
  18 C18           -0.0628    10.0667     0.0580 C.ar    
  19 C19           -1.0642     9.0930     0.0623 C.ar    
  20 C20           -0.7259     7.7558     0.0457 C.ar    
  21 F21           -1.6941     6.8136     0.0442 F       
  22 C22           -0.4142    11.4548     0.0691 C.1     
  23 N23           -0.6930    12.5561     0.0780 N.1     
  24 Cl24           3.2921     7.8808     0.0159 Cl      
  25 H25           -0.8627     1.8171     0.0160 H       
  26 H26           -2.0023    -0.2203     0.0200 H       
  27 H27           -0.6258    -2.5101    -0.8955 H       
  28 H28           -0.6088    -2.5197     0.8844 H       
  29 H29           -2.1585    -2.5359     0.0091 H       
  30 H30            4.5207     3.9002    -0.0197 H       
  31 H31            4.4073     1.4745    -0.0324 H       
  32 H32            2.0558    10.4402     0.0403 H       
  33 H33           -2.1033     9.3871     0.0739 H       
@<TRIPOS>BOND
   1    1    2 am
   2    1    6 1
   3    1   25 1
   4    2    3 2
   5    2    4 am
   6    4    5 1
   7    4   26 1
   8    5   27 1
   9    5   28 1
  10    5   29 1
  11    6    7 ar
  12    6   11 ar
  13    7    8 ar
  14    7   12 1
  15    8    9 ar
  16    8   14 1
  17    9   10 ar
  18    9   30 1
  19   10   11 ar
  20   10   31 1
  21   12   13 1
  22   13   14 2
  23   13   15 1
  24   15   16 ar
  25   15   20 ar
  26   16   17 ar
  27   16   24 1
  28   17   18 ar
  29   17   32 1
  30   18   19 ar
  31   18   22 1
  32   19   20 ar
  33   19   33 1
  34   20   21 1
  35   22   23 3

#	End of record

