#	Name: ASD00170355
#	Creating user name:	WinNT
#	Creation time:	15. 06. 2019 18:32

#	Modifying user name:	WinNT
#	Modification time:	15. 06. 2019 18:32

#	Program:	/corina/corina34_cracker 3.40 0067  02.08.2006

@<TRIPOS>MOLECULE
ASD00170355
  50   52    0    0    0
SMALL
NO_CHARGES


@<TRIPOS>ATOM
   1 C1            -0.0062     1.3448    -0.2312 C.2     
   2 C2             0.0027    -0.0008    -0.1924 C.2     
   3 C3             1.2433     1.9210     0.0019 C.2     
   4 C4             2.2452     0.9988     0.2269 C.2     
   5 S5             1.6230    -0.5874     0.1466 S.3     
   6 N6             3.5613     1.3145     0.4801 N.pl3   
   7 C7             1.4701     3.3676     0.0068 C.2     
   8 O8             1.4899     3.9771     1.0607 O.2     
   9 C9             1.6751     4.0880    -1.2678 C.ar    
  10 C10            1.7797     5.4803    -1.2770 C.ar    
  11 C11            1.9713     6.1467    -2.4689 C.ar    
  12 C12            2.0601     5.4376    -3.6555 C.ar    
  13 C13            1.9566     4.0563    -3.6528 C.ar    
  14 C14            1.7707     3.3784    -2.4665 C.ar    
  15 C15           -1.1439    -0.8338    -0.3975 C.1     
  16 C16           -2.0839    -1.5167    -0.5657 C.1     
  17 C17           -3.2305    -2.3498    -0.7708 C.ar    
  18 C18           -3.1083    -3.7413    -0.7082 C.ar    
  19 C19           -4.2171    -4.5367    -0.9064 C.ar    
  20 C20           -5.4484    -3.9611    -1.1671 C.ar    
  21 C21           -5.5774    -2.5846    -1.2306 C.ar    
  22 C22           -4.4791    -1.7756    -1.0290 C.ar    
  23 C23           -1.2479     2.1530    -0.5070 C.3     
  24 C24           -1.9562     2.4659     0.8126 C.3     
  25 C25           -1.0176     3.2659     1.7181 C.3     
  26 C26           -3.2168     3.2865     0.5326 C.3     
  27 C27           -2.3426     1.1583     1.5066 C.3     
  28 Cl28           2.3014     6.2835    -5.1522 Cl      
  29 H29            3.8553     2.2379     0.4375 H       
  30 H30            4.1943     0.6136     0.7010 H       
  31 H31            1.7103     6.0343    -0.3525 H       
  32 H32            2.0520     7.2236    -2.4774 H       
  33 H33            2.0259     3.5089    -4.5812 H       
  34 H34            1.6905     2.3014    -2.4656 H       
  35 H35           -2.1480    -4.1920    -0.5056 H       
  36 H36           -4.1244    -5.6117    -0.8583 H       
  37 H37           -6.3131    -4.5894    -1.3221 H       
  38 H38           -6.5415    -2.1428    -1.4349 H       
  39 H39           -4.5813    -0.7016    -1.0785 H       
  40 H40           -0.9726     3.0846    -1.0014 H       
  41 H41           -1.9166     1.5831    -1.1521 H       
  42 H42           -0.7424     4.1975     1.2237 H       
  43 H43           -1.5223     3.4888     2.6582 H       
  44 H44           -0.1195     2.6813     1.9175 H       
  45 H45           -3.8855     2.7166    -0.1125 H       
  46 H46           -3.7215     3.5094     1.4727 H       
  47 H47           -2.9416     4.2181     0.0382 H       
  48 H48           -1.4445     0.5737     1.7060 H       
  49 H49           -2.8472     1.3812     2.4467 H       
  50 H50           -3.0113     0.5884     0.8615 H       
@<TRIPOS>BOND
   1    1    2 2
   2    1    3 1
   3    1   23 1
   4    2   15 1
   5    2    5 1
   6    3    4 2
   7    3    7 1
   8    4    5 1
   9    4    6 1
  10    6   29 1
  11    6   30 1
  12    7    8 2
  13    7    9 1
  14    9   10 ar
  15    9   14 ar
  16   10   11 ar
  17   10   31 1
  18   11   12 ar
  19   11   32 1
  20   12   13 ar
  21   12   28 1
  22   13   14 ar
  23   13   33 1
  24   14   34 1
  25   15   16 3
  26   16   17 1
  27   17   18 ar
  28   17   22 ar
  29   18   19 ar
  30   18   35 1
  31   19   20 ar
  32   19   36 1
  33   20   21 ar
  34   20   37 1
  35   21   22 ar
  36   21   38 1
  37   22   39 1
  38   23   24 1
  39   23   40 1
  40   23   41 1
  41   24   25 1
  42   24   26 1
  43   24   27 1
  44   25   42 1
  45   25   43 1
  46   25   44 1
  47   26   45 1
  48   26   46 1
  49   26   47 1
  50   27   48 1
  51   27   49 1
  52   27   50 1

#	End of record

