#	Name: ASD01150024
#	Creating user name:	WinNT
#	Creation time:	15. 06. 2019 19:03

#	Modifying user name:	WinNT
#	Modification time:	15. 06. 2019 19:03

#	Program:	/corina/corina34_cracker 3.40 0067  02.08.2006

@<TRIPOS>MOLECULE
ASD01150024
  32   33    0    0    0
SMALL
NO_CHARGES


@<TRIPOS>ATOM
   1 N1            -0.0686     1.2076     0.0089 N.ar    
   2 C2             0.0741    -0.1101    -0.0193 C.ar    
   3 C3             1.3468    -0.6524    -0.0344 C.ar    
   4 C4             2.4402     0.2148    -0.0194 C.ar    
   5 N5             2.2237     1.5263     0.0089 N.ar    
   6 C6             0.9889     2.0068     0.0226 C.ar    
   7 S7             0.7466     3.7516     0.0595 S.3     
   8 C8            -1.0622     3.8177     0.0664 C.3     
   9 Cl9           -1.3205    -1.1437    -0.0364 Cl      
  10 C10            1.5480    -2.1456    -0.0660 C.3     
  11 F11            0.4206    -2.7563    -0.6257 F       
  12 F12            2.6742    -2.4482    -0.8388 F       
  13 F13            1.7358    -2.6185     1.2372 F       
  14 C14            6.1268    -0.0123     0.4701 C.3     
  15 C15            4.8704     0.6329    -0.1407 C.3     
  16 C16            5.1917     0.9047    -1.6248 C.3     
  17 C17            6.3192    -0.1030    -1.9600 C.3     
  18 C18            7.1677    -0.1101    -0.6642 C.3     
  19 N19            3.7328    -0.2838    -0.0332 N.pl3   
  20 H20           -1.3877     4.8577     0.0890 H       
  21 H21           -1.4468     3.3360    -0.8325 H       
  22 H22           -1.4413     3.2991     0.9470 H       
  23 H23            6.5117     0.6109     1.2773 H       
  24 H24            5.8901    -1.0075     0.8464 H       
  25 H25            4.6456     1.5692     0.3702 H       
  26 H26            4.3155     0.7170    -2.2454 H       
  27 H27            5.5426     1.9280    -1.7580 H       
  28 H28            5.9069    -1.0925    -2.1572 H       
  29 H29            6.9102     0.2462    -2.8068 H       
  30 H30            7.8377     0.7494    -0.6423 H       
  31 H31            7.7335    -1.0382    -0.5838 H       
  32 H32            3.8845    -1.2399     0.0283 H       
@<TRIPOS>BOND
   1    1    2 ar
   2    1    6 ar
   3    2    3 ar
   4    2    9 1
   5    3    4 ar
   6    3   10 1
   7    4    5 ar
   8    4   19 1
   9    5    6 ar
  10    6    7 1
  11    7    8 1
  12    8   20 1
  13    8   21 1
  14    8   22 1
  15   10   11 1
  16   10   12 1
  17   10   13 1
  18   14   15 1
  19   14   18 1
  20   14   23 1
  21   14   24 1
  22   15   16 1
  23   15   19 1
  24   15   25 1
  25   16   17 1
  26   16   26 1
  27   16   27 1
  28   17   18 1
  29   17   28 1
  30   17   29 1
  31   18   30 1
  32   18   31 1
  33   19   32 1

#	End of record

