#	Name: ASD01816447
#	Creating user name:	WinNT
#	Creation time:	15. 06. 2019 19:35

#	Modifying user name:	WinNT
#	Modification time:	15. 06. 2019 19:35

#	Program:	/corina/corina34_cracker 3.40 0067  02.08.2006

@<TRIPOS>MOLECULE
ASD01816447
  57   63    0    0    0
SMALL
NO_CHARGES


@<TRIPOS>ATOM
   1 C1            -0.0167     1.3813     0.0096 C.ar    
   2 C2             0.0021    -0.0041     0.0020 C.ar    
   3 C3             1.1983    -0.6909    -0.0127 C.ar    
   4 C4             2.4015     0.0059    -0.0200 C.ar    
   5 C5             2.3790     1.4106    -0.0127 C.ar    
   6 C6             1.1662     2.0917     0.0022 C.ar    
   7 N7             3.6052    -0.6771    -0.0338 N.pl3   
   8 C8             4.7970    -0.0585    -0.0414 C.2     
   9 C9             4.8999     1.3103    -0.0354 C.2     
  10 C10            3.6670     2.1302    -0.0207 C.2     
  11 C11            5.9971     2.2731    -0.0405 C.2     
  12 N12            5.4245     3.4962    -0.0297 N.am    
  13 N13            4.0322     3.3800    -0.0180 N.2     
  14 C14            6.1220     4.7009    -0.0301 C.ar    
  15 O15            7.1911     2.0232    -0.0516 O.2     
  16 C16            3.5778    -2.1419    -0.0399 C.3     
  17 C17            3.5557    -2.6379    -1.4627 C.ar    
  18 C18            4.7436    -2.8874    -2.1251 C.ar    
  19 C19            4.7265    -3.3417    -3.4293 C.ar    
  20 C20            3.5150    -3.5483    -4.0751 C.ar    
  21 C21            2.3239    -3.2973    -3.4073 C.ar    
  22 C22            2.3474    -2.8481    -2.1014 C.ar    
  23 N23            3.4944    -4.0088    -5.3990 N.pl3   
  24 C24            2.3897    -4.2503    -6.1405 C.2     
  25 C25            2.7965    -4.6801    -7.3574 C.2     
  26 C26            4.1955    -4.7024    -7.3609 C.2     
  27 N27            4.6147    -4.2947    -6.1900 N.2     
  28 C28            7.0533     4.9644    -1.0235 C.ar    
  29 C29            7.7453     6.1584    -1.0239 C.ar    
  30 C30            7.5152     7.1007    -0.0346 C.ar    
  31 C31            6.5930     6.8587     0.9631 C.ar    
  32 C32            5.8791     5.6590     0.9768 C.ar    
  33 C33            6.1687     7.7121     2.1344 C.3     
  34 C34            5.1063     6.9039     2.8920 C.3     
  35 C35            4.9534     5.6186     2.1152 C.2     
  36 O36            4.2030     4.7060     2.3902 O.2     
  37 H37           -0.9602     1.9069     0.0170 H       
  38 H38           -0.9289    -0.5515     0.0080 H       
  39 H39            1.2003    -1.7709    -0.0181 H       
  40 H40            1.1505     3.1715     0.0081 H       
  41 H41            5.6982    -0.6535    -0.0521 H       
  42 H42            4.4655    -2.5240     0.4643 H       
  43 H43            2.6859    -2.4908     0.4805 H       
  44 H44            5.6857    -2.7265    -1.6222 H       
  45 H45            5.6547    -3.5357    -3.9463 H       
  46 H46            1.3799    -3.4567    -3.9073 H       
  47 H47            1.4212    -2.6527    -1.5814 H       
  48 H48            1.3664    -4.1235    -5.8190 H       
  49 H49            2.1546    -4.9570    -8.1807 H       
  50 H50            4.8218    -5.0004    -8.1888 H       
  51 H51            7.2374     4.2341    -1.7976 H       
  52 H52            8.4700     6.3591    -1.7990 H       
  53 H53            8.0621     8.0319    -0.0442 H       
  54 H54            7.0224     7.9093     2.7830 H       
  55 H55            5.7428     8.6505     1.7794 H       
  56 H56            5.4403     6.7014     3.9096 H       
  57 H57            4.1593     7.4435     2.9049 H       
@<TRIPOS>BOND
   1    1    2 ar
   2    1    6 ar
   3    1   37 1
   4    2    3 ar
   5    2   38 1
   6    3    4 ar
   7    3   39 1
   8    4    5 ar
   9    4    7 1
  10    5    6 ar
  11    5   10 1
  12    6   40 1
  13    7    8 1
  14    7   16 1
  15    8    9 2
  16    8   41 1
  17    9   10 1
  18    9   11 1
  19   10   13 2
  20   11   12 am
  21   11   15 2
  22   12   13 1
  23   12   14 1
  24   14   32 ar
  25   14   28 ar
  26   16   17 1
  27   16   42 1
  28   16   43 1
  29   17   18 ar
  30   17   22 ar
  31   18   19 ar
  32   18   44 1
  33   19   20 ar
  34   19   45 1
  35   20   21 ar
  36   20   23 1
  37   21   22 ar
  38   21   46 1
  39   22   47 1
  40   23   24 1
  41   23   27 1
  42   24   25 2
  43   24   48 1
  44   25   26 1
  45   25   49 1
  46   26   27 2
  47   26   50 1
  48   28   29 ar
  49   28   51 1
  50   29   30 ar
  51   29   52 1
  52   30   31 ar
  53   30   53 1
  54   31   32 ar
  55   31   33 1
  56   32   35 1
  57   33   34 1
  58   33   54 1
  59   33   55 1
  60   34   35 1
  61   34   56 1
  62   34   57 1
  63   35   36 2

#	End of record

