#	Name: ASD03091855
#	Creating user name:	WinNT
#	Creation time:	15. 06. 2019 20:31

#	Modifying user name:	WinNT
#	Modification time:	15. 06. 2019 20:31

#	Program:	/corina/corina34_cracker 3.40 0067  02.08.2006

@<TRIPOS>MOLECULE
ASD03091855
  53   56    0    0    0
SMALL
NO_CHARGES


@<TRIPOS>ATOM
   1 C1            -0.0170     1.3998     0.0097 C.ar    
   2 C2            -1.2283     2.0682     0.0306 C.ar    
   3 C3            -2.4087     1.3494     0.0435 C.ar    
   4 C4            -2.3914    -0.0360     0.0356 C.ar    
   5 C5            -1.1918    -0.7183     0.0148 C.ar    
   6 C6             0.0021    -0.0041     0.0020 C.ar    
   7 O7             1.1631     2.0665     0.0021 O.3     
   8 C8             2.2620     1.4580     0.6804 C.3     
   9 N9             2.4081     0.0565     0.2863 N.am    
  10 C10            1.3144    -0.6822    -0.0142 C.2     
  11 C11           -3.6892    -0.8018     0.0501 C.3     
  12 C12           -4.2052    -0.9426    -1.3588 C.ar    
  13 C13           -5.0422     0.0170    -1.8967 C.ar    
  14 C14           -3.8420    -2.0332    -2.1336 C.ar    
  15 C15           -4.3410    -2.1213    -3.4244 C.ar    
  16 C16           -5.1778    -1.1261    -3.8922 C.ar    
  17 N17           -5.4980    -0.0996    -3.1285 N.ar    
  18 O18            1.4088    -1.8630    -0.2883 O.2     
  19 C19            3.7406    -0.5484     0.2167 C.3     
  20 C20            4.0045    -1.0383    -1.2085 C.3     
  21 O21            3.9351     0.0662    -2.1124 O.3     
  22 C22           -5.7260    -1.2115    -5.2934 C.3     
  23 C23           -3.7269     2.0794     0.0669 C.3     
  24 C24            3.8150    -1.7311     1.1845 C.3     
  25 C25            5.2066    -2.3628     1.1119 C.3     
  26 C26            5.4705    -2.8527    -0.3133 C.3     
  27 C27            5.3961    -1.6701    -1.2812 C.3     
  28 H28           -1.2513     3.1479     0.0371 H       
  29 H29           -1.1800    -1.7983     0.0090 H       
  30 H30            3.1773     1.9966     0.4346 H       
  31 H31            2.0934     1.5120     1.7559 H       
  32 H32           -3.5226    -1.7910     0.4766 H       
  33 H33           -4.4213    -0.2647     0.6532 H       
  34 H34           -5.3263     0.8719    -1.3012 H       
  35 H35           -3.1857    -2.7960    -1.7414 H       
  36 H36           -4.0787    -2.9569    -4.0563 H       
  37 H37            4.4910     0.1931     0.4908 H       
  38 H38            3.2541    -1.7799    -1.4826 H       
  39 H39            4.0927    -0.1712    -3.0365 H       
  40 H40           -6.6724    -1.7521    -5.2809 H       
  41 H41           -5.8869    -0.2061    -5.6825 H       
  42 H42           -5.0151    -1.7380    -5.9301 H       
  43 H43           -4.0596     2.2614    -0.9550 H       
  44 H44           -4.4684     1.4737     0.5879 H       
  45 H45           -3.6062     3.0309     0.5846 H       
  46 H46            3.6270    -1.3820     2.1999 H       
  47 H47            3.0646    -2.4726     0.9104 H       
  48 H48            5.9570    -1.6213     1.3860 H       
  49 H49            5.2596    -3.2053     1.8014 H       
  50 H50            6.4619    -3.3028    -0.3651 H       
  51 H51            4.7201    -3.5943    -0.5874 H       
  52 H52            5.5841    -2.0191    -2.2965 H       
  53 H53            6.1465    -0.9285    -1.0071 H       
@<TRIPOS>BOND
   1    1    6 ar
   2    1    7 1
   3    1    2 ar
   4    2    3 ar
   5    2   28 1
   6    3    4 ar
   7    3   23 1
   8    4    5 ar
   9    4   11 1
  10    5    6 ar
  11    5   29 1
  12    6   10 1
  13    7    8 1
  14    8    9 1
  15    8   30 1
  16    8   31 1
  17    9   10 am
  18    9   19 1
  19   10   18 2
  20   11   12 1
  21   11   32 1
  22   11   33 1
  23   12   14 ar
  24   12   13 ar
  25   13   17 ar
  26   13   34 1
  27   14   15 ar
  28   14   35 1
  29   15   16 ar
  30   15   36 1
  31   16   22 1
  32   16   17 ar
  33   19   24 1
  34   19   20 1
  35   19   37 1
  36   20   21 1
  37   20   27 1
  38   20   38 1
  39   21   39 1
  40   22   40 1
  41   22   41 1
  42   22   42 1
  43   23   43 1
  44   23   44 1
  45   23   45 1
  46   24   25 1
  47   24   46 1
  48   24   47 1
  49   25   26 1
  50   25   48 1
  51   25   49 1
  52   26   27 1
  53   26   50 1
  54   26   51 1
  55   27   52 1
  56   27   53 1

#	End of record

