#	Name: ASD00842229
#	Creating user name:	WinNT
#	Creation time:	15. 06. 2019 18:43

#	Modifying user name:	WinNT
#	Modification time:	15. 06. 2019 18:43

#	Program:	/corina/corina34_cracker 3.40 0067  02.08.2006

@<TRIPOS>MOLECULE
ASD00842229
  87   92    0    0    0
SMALL
NO_CHARGES


@<TRIPOS>ATOM
   1 F1             6.0478    -1.6656    -2.0510 F       
   2 C2             0.9563     1.5340    -0.4732 C.ar    
   3 C3             1.2719     0.2004    -0.6872 C.ar    
   4 C4             1.2242    -0.6994     0.3680 C.ar    
   5 C5             0.8629    -0.2652     1.6285 C.ar    
   6 C6             0.5482     1.0648     1.8391 C.ar    
   7 C7             0.5954     1.9633     0.7896 C.ar    
   8 C8             1.5660    -2.1491     0.1390 C.3     
   9 C9             1.3202    -2.9567     1.3954 C.2     
  10 C10            0.7521    -2.7123    -1.0278 C.3     
  11 C11           -0.7159    -2.4909    -0.7693 C.2     
  12 N12           -1.6333    -2.9968    -1.6173 N.am    
  13 O13           -1.0719    -1.8576     0.2019 O.2     
  14 C14           -3.0606    -2.6945    -1.4434 C.3     
  15 C15           -3.8407    -4.0118    -1.3904 C.3     
  16 C16           -3.5209    -4.8399    -2.6371 C.3     
  17 C17           -2.0257    -5.1648    -2.6660 C.3     
  18 C18           -1.2244    -3.8560    -2.7368 C.3     
  19 C19           -4.3248    -6.1412    -2.6046 C.3     
  20 C20           -5.8212    -5.8178    -2.5773 C.3     
  21 C21           -6.6208    -7.1224    -2.6064 C.3     
  22 N22           -6.2866    -7.8757    -3.8218 N.3     
  23 C23           -4.8639    -8.2386    -3.8474 C.3     
  24 C24           -4.0120    -6.9673    -3.8553 C.3     
  25 H25           -6.8702    -8.6939    -3.9120 H       
  26 O26            0.2571    -3.1032     1.9606 O.2     
  27 N27            2.4999    -3.4811     1.7672 N.am    
  28 C28            3.0472    -2.3097    -0.1186 C.ar    
  29 C29            3.5349    -3.1214     0.9006 C.ar    
  30 C30            3.8811    -1.8238    -1.1014 C.ar    
  31 C31            5.2283    -2.1404    -1.0876 C.ar    
  32 C32            5.7364    -2.9552    -0.0707 C.ar    
  33 C33            4.8866    -3.4441     0.9211 C.ar    
  34 C34            2.4580    -6.1098     2.5811 C.ar    
  35 C35            3.5301    -6.8576     2.1307 C.ar    
  36 C36            1.1944    -6.6689     2.6311 C.ar    
  37 C37            1.0002    -7.9768     2.2309 C.ar    
  38 C38            2.0744    -8.7293     1.7785 C.ar    
  39 C39            3.3412    -8.1658     1.7289 C.ar    
  40 O40            1.8860   -10.0163     1.3847 O.3     
  41 H41            4.5162    -6.4186     2.0926 H       
  42 C42            3.0372   -10.7308     0.9305 C.3     
  43 C43            7.1290    -3.2880    -0.0484 C.1     
  44 N44            8.2337    -3.5520    -0.0307 N.1     
  45 S45            2.7036    -4.4437     3.0992 S.o2    
  46 O46            4.0718    -4.3354     3.4670 O.2     
  47 O47            1.6344    -4.1366     3.9834 O.2     
  48 O48            1.6268    -0.2244    -1.9283 O.3     
  49 C49            2.0755     0.1042    -4.2802 C.3     
  50 C50            1.5454     0.7302    -2.9886 C.3     
  51 H51            0.9970     2.2372    -1.2919 H       
  52 H52            0.8256    -0.9651     2.4501 H       
  53 H53            0.2652     1.4022     2.8253 H       
  54 H54            0.3493     3.0015     0.9566 H       
  55 H55            1.0392    -2.2055    -1.9491 H       
  56 H56            0.9470    -3.7803    -1.1247 H       
  57 H57           -3.2071    -2.1454    -0.5133 H       
  58 H58           -3.4121    -2.0951    -2.2832 H       
  59 H59           -3.5526    -4.5696    -0.4994 H       
  60 H60           -4.9095    -3.8006    -1.3583 H       
  61 H61           -3.7863    -4.2715    -3.5285 H       
  62 H62           -1.7547    -5.7118    -1.7630 H       
  63 H63           -1.8027    -5.7743    -3.5418 H       
  64 H64           -1.4274    -3.3540    -3.6828 H       
  65 H65           -0.1595    -4.0748    -2.6579 H       
  66 H66           -4.0591    -6.7114    -1.7144 H       
  67 H67           -6.0578    -5.2662    -1.6674 H       
  68 H68           -6.0789    -5.2136    -3.4472 H       
  69 H69           -6.3729    -7.7199    -1.7291 H       
  70 H70           -7.6868    -6.8951    -2.6015 H       
  71 H71           -4.6243    -8.8309    -2.9643 H       
  72 H72           -4.6540    -8.8221    -4.7438 H       
  73 H73           -4.2411    -6.3812    -4.7453 H       
  74 H74           -2.9559    -7.2371    -3.8585 H       
  75 H75            3.4829    -1.1951    -1.8841 H       
  76 H76            5.2793    -4.0733     1.7062 H       
  77 H77            0.3586    -6.0828     2.9837 H       
  78 H78            0.0131    -8.4132     2.2704 H       
  79 H79            4.1790    -8.7496     1.3775 H       
  80 H80            3.4649   -10.2201     0.0677 H       
  81 H81            3.7766   -10.7745     1.7302 H       
  82 H82            2.7482   -11.7429     0.6472 H       
  83 H83            2.0953     0.8576    -5.0676 H       
  84 H84            3.0842    -0.2737    -4.1135 H       
  85 H85            1.4246    -0.7173    -4.5796 H       
  86 H86            0.5067     1.0292    -3.1294 H       
  87 H87            2.1445     1.6052    -2.7365 H       
@<TRIPOS>BOND
   1    1   31 1
   2    2    3 ar
   3    2    7 ar
   4    2   51 1
   5    3    4 ar
   6    3   48 1
   7    4    5 ar
   8    4    8 1
   9    5    6 ar
  10    5   52 1
  11    6    7 ar
  12    6   53 1
  13    7   54 1
  14    8    9 1
  15    8   10 1
  16    8   28 1
  17    9   26 2
  18    9   27 am
  19   10   11 1
  20   10   55 1
  21   10   56 1
  22   11   12 am
  23   11   13 2
  24   12   14 1
  25   12   18 1
  26   14   15 1
  27   14   57 1
  28   14   58 1
  29   15   16 1
  30   15   59 1
  31   15   60 1
  32   16   17 1
  33   16   19 1
  34   16   61 1
  35   17   18 1
  36   17   62 1
  37   17   63 1
  38   18   64 1
  39   18   65 1
  40   19   20 1
  41   19   24 1
  42   19   66 1
  43   20   21 1
  44   20   67 1
  45   20   68 1
  46   21   22 1
  47   21   69 1
  48   21   70 1
  49   22   23 1
  50   22   25 1
  51   23   24 1
  52   23   71 1
  53   23   72 1
  54   24   73 1
  55   24   74 1
  56   27   45 am
  57   27   29 1
  58   28   29 ar
  59   28   30 ar
  60   29   33 ar
  61   30   31 ar
  62   30   75 1
  63   31   32 ar
  64   32   33 ar
  65   32   43 1
  66   33   76 1
  67   34   35 ar
  68   34   36 ar
  69   34   45 1
  70   35   41 1
  71   35   39 ar
  72   36   37 ar
  73   36   77 1
  74   37   38 ar
  75   37   78 1
  76   38   39 ar
  77   38   40 1
  78   39   79 1
  79   40   42 1
  80   42   80 1
  81   42   81 1
  82   42   82 1
  83   43   44 3
  84   45   46 2
  85   45   47 2
  86   48   50 1
  87   49   50 1
  88   49   83 1
  89   49   84 1
  90   49   85 1
  91   50   86 1
  92   50   87 1

#	End of record

