#	Name: ASD02500972
#	Creating user name:	WinNT
#	Creation time:	15. 06. 2019 20:23

#	Modifying user name:	WinNT
#	Modification time:	15. 06. 2019 20:23

#	Program:	/corina/corina34_cracker 3.40 0067  02.08.2006

@<TRIPOS>MOLECULE
ASD02500972
  34   37    0    0    0
SMALL
NO_CHARGES


@<TRIPOS>ATOM
   1 C1            -0.0169     1.3918     0.0097 C.2     
   2 C2             0.0021    -0.0041     0.0020 C.2     
   3 C3            -1.2291    -0.6914     0.0107 C.2     
   4 N4            -2.3695     0.0319     0.0261 N.am    
   5 C5            -2.3276     1.3893     0.0326 C.2     
   6 N6            -1.2029     2.0450     0.0295 N.2     
   7 C7             1.3345     1.8289    -0.0009 C.2     
   8 C8             2.1424     0.7143    -0.0145 C.2     
   9 N9             1.3183    -0.4127    -0.0127 N.pl3   
  10 S10            2.3297     3.2814    -0.0031 S.3     
  11 C11            3.8000     2.3216    -0.0224 C.2     
  12 C12            3.5066     1.0271    -0.0262 C.2     
  13 C13            1.7779    -1.8037    -0.0236 C.3     
  14 C14           -3.6638    -0.6542     0.0355 C.3     
  15 C15           -4.0933    -0.8971     1.4594 C.ar    
  16 C16           -5.0908    -0.1234     2.0223 C.ar    
  17 C17           -3.4930    -1.8991     2.2025 C.ar    
  18 C18           -3.8890    -2.1215     3.5107 C.ar    
  19 C19           -4.8827    -1.3433     4.0729 C.ar    
  20 C20           -5.4850    -0.3459     3.3283 C.ar    
  21 F21           -2.5218    -2.6597     1.6516 F       
  22 O22           -1.2633    -1.9110     0.0041 O.2     
  23 H23           -3.2556     1.9417     0.0446 H       
  24 H24            4.8009     2.7271    -0.0306 H       
  25 H25            4.2712     0.2644    -0.0373 H       
  26 H26            1.9015    -2.1536     1.0013 H       
  27 H27            1.0422    -2.4255    -0.5336 H       
  28 H28            2.7322    -1.8670    -0.5466 H       
  29 H29           -4.4068    -0.0353    -0.4675 H       
  30 H30           -3.5733    -1.6080    -0.4844 H       
  31 H31           -5.5622     0.6557     1.4415 H       
  32 H32           -3.4215    -2.9031     4.0911 H       
  33 H33           -5.1917    -1.5165     5.0931 H       
  34 H34           -6.2613     0.2621     3.7687 H       
@<TRIPOS>BOND
   1    1    2 2
   2    1    7 1
   3    1    6 1
   4    2    3 1
   5    2    9 1
   6    3    4 am
   7    3   22 2
   8    4    5 1
   9    4   14 1
  10    5    6 2
  11    5   23 1
  12    7    8 2
  13    7   10 1
  14    8    9 1
  15    8   12 1
  16    9   13 1
  17   10   11 1
  18   11   12 2
  19   11   24 1
  20   12   25 1
  21   13   26 1
  22   13   27 1
  23   13   28 1
  24   14   15 1
  25   14   29 1
  26   14   30 1
  27   15   16 ar
  28   15   17 ar
  29   16   20 ar
  30   16   31 1
  31   17   18 ar
  32   17   21 1
  33   18   19 ar
  34   18   32 1
  35   19   20 ar
  36   19   33 1
  37   20   34 1

#	End of record

