#	Name: ASD01883112
#	Creating user name:	WinNT
#	Creation time:	15. 06. 2019 19:45

#	Modifying user name:	WinNT
#	Modification time:	15. 06. 2019 19:45

#	Program:	/corina/corina34_cracker 3.40 0067  02.08.2006

@<TRIPOS>MOLECULE
ASD01883112
  45   47    0    0    0
SMALL
NO_CHARGES


@<TRIPOS>ATOM
   1 N1            -0.2496     1.5395    -1.2539 N.am    
   2 C2            -0.3333     0.2818    -1.7257 C.2     
   3 C3            -1.5161    -0.4710    -1.5248 C.2     
   4 C4            -2.5846     0.1234    -0.8291 C.2     
   5 C5            -2.4350     1.4439    -0.3600 C.2     
   6 C6            -1.2795     2.1109    -0.5778 C.2     
   7 O7             0.6079    -0.2088    -2.3257 O.2     
   8 C8            -1.6225    -1.8103    -2.0205 C.1     
   9 N9            -1.7068    -2.8727    -2.4137 N.1     
  10 C10            0.9804     2.3058    -1.4688 C.3     
  11 C11            0.8784     3.0746    -2.7876 C.3     
  12 C12            2.1629     3.8750    -3.0121 C.3     
  13 C13            2.0608     4.6438    -4.3310 C.3     
  14 C14           -3.8380    -0.6213    -0.5953 C.ar    
  15 C15           -4.1224    -1.1342     0.6728 C.ar    
  16 C16           -5.2927    -1.8277     0.8870 C.ar    
  17 C17           -6.1919    -2.0192    -0.1559 C.ar    
  18 C18           -5.9152    -1.5124    -1.4192 C.ar    
  19 C19           -4.7479    -0.8106    -1.6422 C.ar    
  20 O20           -7.3437    -2.7041     0.0610 O.3     
  21 C21           -7.3384    -4.0443    -0.1539 C.ar    
  22 F22           -4.4786    -0.3175    -2.8708 F       
  23 C23           -6.1594    -4.7107    -0.4795 C.ar    
  24 C24           -6.1955    -6.0738    -0.6898 C.ar    
  25 N25           -7.3273    -6.7443    -0.5858 N.ar    
  26 C26           -8.4643    -6.1487    -0.2793 C.ar    
  27 C27           -8.5106    -4.7892    -0.0487 C.ar    
  28 H28           -3.2417     1.9213     0.1765 H       
  29 H29           -1.1762     3.1223    -0.2133 H       
  30 H30            1.1182     3.0094    -0.6478 H       
  31 H31            1.8303     1.6247    -1.5101 H       
  32 H32            0.7405     2.3710    -3.6086 H       
  33 H33            0.0284     3.7558    -2.7463 H       
  34 H34            2.3007     4.5786    -2.1911 H       
  35 H35            3.0128     3.1938    -3.0534 H       
  36 H36            2.9759     5.2140    -4.4909 H       
  37 H37            1.9230     3.9402    -5.1520 H       
  38 H38            1.2109     5.3249    -4.2897 H       
  39 H39           -3.4250    -0.9872     1.4842 H       
  40 H40           -5.5123    -2.2241     1.8673 H       
  41 H41           -6.6162    -1.6641    -2.2267 H       
  42 H42           -5.2298    -4.1678    -0.5666 H       
  43 H43           -5.2862    -6.5985    -0.9431 H       
  44 H44           -9.3692    -6.7334    -0.2042 H       
  45 H45           -9.4443    -4.3080     0.2022 H       
@<TRIPOS>BOND
   1    1    2 am
   2    1   10 1
   3    1    6 1
   4    2    3 1
   5    2    7 2
   6    3    4 2
   7    3    8 1
   8    4    5 1
   9    4   14 1
  10    5    6 2
  11    5   28 1
  12    6   29 1
  13    8    9 3
  14   10   11 1
  15   10   30 1
  16   10   31 1
  17   11   12 1
  18   11   32 1
  19   11   33 1
  20   12   13 1
  21   12   34 1
  22   12   35 1
  23   13   36 1
  24   13   37 1
  25   13   38 1
  26   14   15 ar
  27   14   19 ar
  28   15   16 ar
  29   15   39 1
  30   16   17 ar
  31   16   40 1
  32   17   18 ar
  33   17   20 1
  34   18   19 ar
  35   18   41 1
  36   19   22 1
  37   20   21 1
  38   21   23 ar
  39   21   27 ar
  40   23   24 ar
  41   23   42 1
  42   24   25 ar
  43   24   43 1
  44   25   26 ar
  45   26   27 ar
  46   26   44 1
  47   27   45 1

#	End of record

