#	Name: ASD03331802
#	Creating user name:	WinNT
#	Creation time:	15. 06. 2019 20:39

#	Modifying user name:	WinNT
#	Modification time:	15. 06. 2019 20:39

#	Program:	/corina/corina34_cracker 3.40 0067  02.08.2006

@<TRIPOS>MOLECULE
ASD03331802
  37   39    0    0    0
SMALL
NO_CHARGES


@<TRIPOS>ATOM
   1 Cl1           -0.4104     0.7346     3.2172 Cl      
   2 C2            -0.3346     2.2921     2.4543 C.ar    
   3 C3             0.3707     3.3210     3.0533 C.ar    
   4 C4             0.4330     4.5609     2.4481 C.ar    
   5 C5            -0.2129     4.7746     1.2376 C.ar    
   6 N6            -0.1510     6.0303     0.6219 N.am    
   7 C7             0.9751     6.7662     0.7039 C.2     
   8 O8             1.9075     6.3775     1.3807 O.2     
   9 N9             1.0677     7.9331     0.0358 N.am    
  10 C10            2.1971     8.7438     0.1967 C.ar    
  11 C11            3.4490     8.1657     0.3659 C.ar    
  12 C12            4.5667     8.9631     0.5251 C.ar    
  13 C13            4.4456    10.3381     0.5167 C.ar    
  14 C14            3.1934    10.9268     0.3470 C.ar    
  15 C15            2.0678    10.1245     0.1814 C.ar    
  16 C16            3.0613    12.4047     0.3382 C.ar    
  17 C17            1.8135    13.0129     0.1751 C.ar    
  18 C18            1.7355    14.3904     0.1730 C.ar    
  19 N19            2.8177    15.1302     0.3216 N.ar    
  20 C20            4.0137    14.5959     0.4782 C.ar    
  21 C21            4.1804    13.2264     0.4986 C.ar    
  22 C22           -0.9200     3.7404     0.6386 C.ar    
  23 C23           -0.9747     2.5009     1.2453 C.ar    
  24 H24            0.8726     3.1544     3.9950 H       
  25 H25            0.9832     5.3638     2.9162 H       
  26 H26           -0.9186     6.3707     0.1363 H       
  27 H27            0.3516     8.2110    -0.5565 H       
  28 H28            3.5491     7.0904     0.3736 H       
  29 H29            5.5377     8.5090     0.6567 H       
  30 H30            5.3210    10.9580     0.6420 H       
  31 H31            1.0961    10.5759     0.0455 H       
  32 H32            0.9236    12.4134     0.0522 H       
  33 H33            0.7757    14.8695     0.0476 H       
  34 H34            4.8732    15.2391     0.5962 H       
  35 H35            5.1618    12.7957     0.6319 H       
  36 H36           -1.4231     3.9040    -0.3029 H       
  37 H37           -1.5208     1.6949     0.7777 H       
@<TRIPOS>BOND
   1    1    2 1
   2    2   23 ar
   3    2    3 ar
   4    3    4 ar
   5    3   24 1
   6    4    5 ar
   7    4   25 1
   8    5    6 1
   9    5   22 ar
  10    6    7 am
  11    6   26 1
  12    7    8 2
  13    7    9 am
  14    9   10 1
  15    9   27 1
  16   10   15 ar
  17   10   11 ar
  18   11   12 ar
  19   11   28 1
  20   12   13 ar
  21   12   29 1
  22   13   14 ar
  23   13   30 1
  24   14   15 ar
  25   14   16 1
  26   15   31 1
  27   16   21 ar
  28   16   17 ar
  29   17   18 ar
  30   17   32 1
  31   18   19 ar
  32   18   33 1
  33   19   20 ar
  34   20   21 ar
  35   20   34 1
  36   21   35 1
  37   22   23 ar
  38   22   36 1
  39   23   37 1

#	End of record

