#	Name: ASD03240205
#	Creating user name:	WinNT
#	Creation time:	15. 06. 2019 20:34

#	Modifying user name:	WinNT
#	Modification time:	15. 06. 2019 20:34

#	Program:	/corina/corina34_cracker 3.40 0067  02.08.2006

@<TRIPOS>MOLECULE
ASD03240205
  71   78    0    0    0
SMALL
NO_CHARGES


@<TRIPOS>ATOM
   1 N1             0.5490     0.5418     0.0769 N.am    
   2 C2             0.6761    -0.8448     0.1126 C.ar    
   3 C3             2.0440    -1.1245     0.1269 C.ar    
   4 N4             2.7057     0.1008     0.0996 N.am    
   5 C5             1.7828     1.0807     0.0699 C.2     
   6 C6            -0.2415    -1.8843     0.1335 C.ar    
   7 C7             0.2017    -3.1918     0.1684 C.ar    
   8 C8             1.5580    -3.4691     0.1827 C.ar    
   9 C9             2.4794    -2.4405     0.1621 C.ar    
  10 O10            2.0268     2.2725     0.0412 O.2     
  11 C11            4.1583     0.2910     0.1030 C.3     
  12 C12            4.5791     1.0410    -1.1639 C.3     
  13 C13            6.0886     1.2902    -1.1256 C.3     
  14 N14            6.4257     2.0788     0.0664 N.3     
  15 C15            6.0740     1.3583     1.2967 C.3     
  16 C16            4.5641     1.1111     1.3307 C.3     
  17 C17            7.8457     2.4551     0.0644 C.3     
  18 C18            8.1010     3.4585     1.1594 C.ar    
  19 C19            8.4557     3.0232     2.4237 C.ar    
  20 C20            7.9852     4.8115     0.8947 C.ar    
  21 C21            8.2177     5.7351     1.8931 C.ar    
  22 C22            8.5701     5.3022     3.1712 C.ar    
  23 C23            8.6908     3.9371     3.4304 C.ar    
  24 C24            8.8215     6.2885     4.2474 C.ar    
  25 N25            9.5523     7.3591     3.9984 N.ar    
  26 C26            8.2543     6.0736     5.5758 C.ar    
  27 N27            8.4707     6.9446     6.5433 N.ar    
  28 C28            9.2149     8.0320     6.3051 C.ar    
  29 C29            9.7793     8.2499     4.9706 C.ar    
  30 C30            7.4307     4.8707     5.8388 C.ar    
  31 C31            7.6301     4.1260     7.0010 C.ar    
  32 C32            6.8598     3.0065     7.2404 C.ar    
  33 C33            5.8916     2.6220     6.3301 C.ar    
  34 C34            5.6892     3.3566     5.1754 C.ar    
  35 C35            6.4489     4.4816     4.9279 C.ar    
  36 C36            9.4587     8.9709     7.3139 C.ar    
  37 C37           10.2329    10.0891     7.0400 C.ar    
  38 C38           10.7794    10.2915     5.7514 C.ar    
  39 C39           10.5566     9.3924     4.7328 C.ar    
  40 N40           10.6273    11.1444     7.8039 N.2     
  41 C41           11.3551    11.9535     7.0931 C.2     
  42 N42           11.4838    11.4823     5.8230 N.pl3   
  43 H43           -0.2860     1.0350     0.0564 H       
  44 H44           -1.3003    -1.6718     0.1228 H       
  45 H45           -0.5129    -4.0014     0.1850 H       
  46 H46            1.8969    -4.4942     0.2100 H       
  47 H47            3.5366    -2.6607     0.1729 H       
  48 H48            4.6527    -0.6800     0.1327 H       
  49 H49            4.3312     0.4423    -2.0404 H       
  50 H50            4.0540     1.9948    -1.2135 H       
  51 H51            6.6135     0.3355    -1.0899 H       
  52 H52            6.3893     1.8366    -2.0195 H       
  53 H53            6.5990     0.4034     1.3210 H       
  54 H54            6.3640     1.9542     2.1621 H       
  55 H55            4.0387     2.0661     1.3203 H       
  56 H56            4.3054     0.5627     2.2365 H       
  57 H57            8.4567     1.5686     0.2342 H       
  58 H58            8.1036     2.8950    -0.8990 H       
  59 H59            8.5485     1.9658     2.6233 H       
  60 H60            7.7126     5.1454    -0.0956 H       
  61 H61            8.1273     6.7910     1.6852 H       
  62 H62            8.9630     3.5959     4.4183 H       
  63 H63            8.3861     4.4248     7.7120 H       
  64 H64            7.0133     2.4291     8.1401 H       
  65 H65            5.2917     1.7446     6.5215 H       
  66 H66            4.9321     3.0513     4.4683 H       
  67 H67            6.2897     5.0544     4.0263 H       
  68 H68            9.0456     8.8258     8.3012 H       
  69 H69           10.9828     9.5641     3.7555 H       
  70 H70           11.7949    12.8698     7.4585 H       
  71 H71           11.9778    11.9021     5.1014 H       
@<TRIPOS>BOND
   1    1    2 1
   2    1    5 am
   3    1   43 1
   4    2    3 ar
   5    2    6 ar
   6    3    4 1
   7    3    9 ar
   8    4    5 am
   9    4   11 1
  10    5   10 2
  11    6    7 ar
  12    6   44 1
  13    7    8 ar
  14    7   45 1
  15    8    9 ar
  16    8   46 1
  17    9   47 1
  18   11   12 1
  19   11   16 1
  20   11   48 1
  21   12   13 1
  22   12   49 1
  23   12   50 1
  24   13   14 1
  25   13   51 1
  26   13   52 1
  27   14   15 1
  28   14   17 1
  29   15   16 1
  30   15   53 1
  31   15   54 1
  32   16   55 1
  33   16   56 1
  34   17   18 1
  35   17   57 1
  36   17   58 1
  37   18   19 ar
  38   18   20 ar
  39   19   23 ar
  40   19   59 1
  41   20   21 ar
  42   20   60 1
  43   21   22 ar
  44   21   61 1
  45   22   23 ar
  46   22   24 1
  47   23   62 1
  48   24   25 ar
  49   24   26 ar
  50   25   29 ar
  51   26   27 ar
  52   26   30 1
  53   27   28 ar
  54   28   29 ar
  55   28   36 ar
  56   29   39 ar
  57   30   31 ar
  58   30   35 ar
  59   31   32 ar
  60   31   63 1
  61   32   33 ar
  62   32   64 1
  63   33   34 ar
  64   33   65 1
  65   34   35 ar
  66   34   66 1
  67   35   67 1
  68   36   37 ar
  69   36   68 1
  70   37   38 ar
  71   37   40 1
  72   38   39 ar
  73   38   42 1
  74   39   69 1
  75   40   41 2
  76   41   42 1
  77   41   70 1
  78   42   71 1

#	End of record

