#	Name: ASD03090517
#	Creating user name:	WinNT
#	Creation time:	15. 06. 2019 20:28

#	Modifying user name:	WinNT
#	Modification time:	15. 06. 2019 20:28

#	Program:	/corina/corina34_cracker 3.40 0067  02.08.2006

@<TRIPOS>MOLECULE
ASD03090517
  34   36    0    0    0
SMALL
NO_CHARGES


@<TRIPOS>ATOM
   1 C1            -0.0169     1.3930     0.0097 C.ar    
   2 C2             0.0021    -0.0041     0.0020 C.ar    
   3 C3             1.2376    -0.6369    -0.0132 C.ar    
   4 C4             2.3753     0.1542    -0.0198 C.ar    
   5 N5             2.2660     1.4714    -0.0112 N.ar    
   6 N6             1.1282     2.0652     0.0024 N.ar    
   7 C7            -1.3075     2.1203     0.0198 C.2     
   8 O8            -2.3535     1.5018     0.0214 O.2     
   9 N9            -1.3215     3.4680     0.0272 N.am    
  10 C10            3.7385    -0.4879    -0.0363 C.3     
  11 F11            4.1478    -0.6796    -1.3603 F       
  12 F12            4.6535     0.3432     0.6190 F       
  13 F13            3.6799    -1.7235     0.6172 F       
  14 C14           -2.5978     4.1873     0.0371 C.3     
  15 N15           -1.6310     9.7308    -0.2106 N.pl3   
  16 C16           -1.6082     9.9042    -1.5677 C.2     
  17 C17           -1.8162     8.7293    -2.1827 C.2     
  18 C18           -1.9861     7.7210    -1.1337 C.ar    
  19 C19           -2.2265     6.3456    -1.1393 C.ar    
  20 C20           -2.3378     5.6716     0.0439 C.ar    
  21 C21           -2.2137     6.3434     1.2525 C.ar    
  22 C22           -1.9769     7.7001     1.2812 C.ar    
  23 C23           -1.8600     8.4064     0.0883 C.ar    
  24 H24           -0.9155    -0.5737     0.0081 H       
  25 H25            1.3100    -1.7144    -0.0193 H       
  26 H26           -0.4866     3.9617     0.0259 H       
  27 H27           -3.1708     3.9228    -0.8516 H       
  28 H28           -3.1624     3.9132     0.9283 H       
  29 H29           -1.5011    10.4352     0.4435 H       
  30 H30           -1.4472    10.8468    -2.0696 H       
  31 H31           -1.8516     8.5595    -3.2487 H       
  32 H32           -2.3250     5.8165    -2.0757 H       
  33 H33           -2.3042     5.7969     2.1797 H       
  34 H34           -1.8823     8.2138     2.2265 H       
@<TRIPOS>BOND
   1    1    2 ar
   2    1    6 ar
   3    1    7 1
   4    2    3 ar
   5    2   24 1
   6    3    4 ar
   7    3   25 1
   8    4    5 ar
   9    4   10 1
  10    5    6 ar
  11    7    8 2
  12    7    9 am
  13    9   14 1
  14    9   26 1
  15   10   11 1
  16   10   12 1
  17   10   13 1
  18   14   20 1
  19   14   27 1
  20   14   28 1
  21   15   16 1
  22   15   23 1
  23   15   29 1
  24   16   17 2
  25   16   30 1
  26   17   18 1
  27   17   31 1
  28   18   19 ar
  29   18   23 ar
  30   19   20 ar
  31   19   32 1
  32   20   21 ar
  33   21   22 ar
  34   21   33 1
  35   22   23 ar
  36   22   34 1

#	End of record

