#	Name: ASD01412066
#	Creating user name:	WinNT
#	Creation time:	15. 06. 2019 19:20

#	Modifying user name:	WinNT
#	Modification time:	15. 06. 2019 19:20

#	Program:	/corina/corina34_cracker 3.40 0067  02.08.2006

@<TRIPOS>MOLECULE
ASD01412066
  61   64    0    0    0
SMALL
NO_CHARGES


@<TRIPOS>ATOM
   1 C1            -0.2599     1.5797    -0.4907 C.ar    
   2 C2            -0.1650     0.1852    -0.5009 C.ar    
   3 C3            -1.2912    -0.5972    -0.3255 C.ar    
   4 C4            -2.5321     0.0018    -0.1368 C.ar    
   5 C5            -2.6251     1.4050    -0.1263 C.ar    
   6 C6            -1.4822     2.1889    -0.2986 C.ar    
   7 N7            -3.6614    -0.7710     0.0381 N.pl3   
   8 C8            -4.8789    -0.2448     0.2226 C.2     
   9 C9            -5.0939     1.1181     0.2518 C.2     
  10 C10           -3.9468     2.0235     0.0748 C.2     
  11 O11           -4.0850     3.2344     0.0926 O.2     
  12 C12           -6.4458     1.6567     0.4563 C.2     
  13 O13           -6.6433     2.9899     0.4830 O.3     
  14 O14           -7.3860     0.8999     0.6015 O.2     
  15 C15           -8.0048     3.4506     0.6891 C.3     
  16 C16           -8.0306     4.9574     0.6892 C.ar    
  17 C17           -6.8593     5.6687     0.5089 C.ar    
  18 C18           -6.8830     7.0510     0.5090 C.ar    
  19 C19           -8.0781     7.7217     0.6889 C.ar    
  20 C20           -9.2499     7.0102     0.8683 C.ar    
  21 C21           -9.2268     5.6283     0.8639 C.ar    
  22 C22           -3.5229    -2.2293     0.0208 C.3     
  23 C23           -3.6383    -2.7281    -1.3965 C.ar    
  24 C24           -2.5048    -3.1044    -2.0913 C.ar    
  25 C25           -2.6103    -3.5616    -3.3919 C.ar    
  26 C26           -3.8496    -3.6429    -3.9986 C.ar    
  27 C27           -4.9850    -3.2675    -3.3055 C.ar    
  28 C28           -4.8811    -2.8149    -2.0012 C.ar    
  29 F29           -5.9902    -2.4481    -1.3226 F       
  30 C30          -10.5041     4.8527     1.0594 C.3     
  31 O31            1.0436    -0.4061    -0.6852 O.3     
  32 C32            1.0737    -1.8347    -0.6854 C.3     
  33 C33           -3.9629    -4.1405    -5.4166 C.3     
  34 F34           -4.1344    -5.5289    -5.4113 F       
  35 F35           -5.0626    -3.5371    -6.0361 F       
  36 F36           -2.7968    -3.8173    -6.1187 F       
  37 O37            0.8562     2.3374    -0.6650 O.3     
  38 C38            0.6871     3.7562    -0.6434 C.3     
  39 H39           -1.2074    -1.6739    -0.3354 H       
  40 H40           -1.5564     3.2663    -0.2898 H       
  41 H41           -5.7205    -0.9091     0.3524 H       
  42 H42           -8.6404     3.0764    -0.1133 H       
  43 H43           -8.3724     3.0809     1.6463 H       
  44 H44           -5.9255     5.1446     0.3684 H       
  45 H45           -5.9677     7.6068     0.3689 H       
  46 H46           -8.0965     8.8015     0.6897 H       
  47 H47          -10.1837     7.5343     1.0092 H       
  48 H48           -2.5495    -2.5067     0.4255 H       
  49 H49           -4.3097    -2.6763     0.6285 H       
  50 H50           -1.5359    -3.0410    -1.6184 H       
  51 H51           -1.7237    -3.8551    -3.9343 H       
  52 H52           -5.9532    -3.3307    -3.7798 H       
  53 H53          -10.9679     4.6664     0.0907 H       
  54 H54          -10.2815     3.9024     1.5444 H       
  55 H55          -11.1867     5.4285     1.6843 H       
  56 H56            0.7090    -2.2059     0.2724 H       
  57 H57            0.4381    -2.2114    -1.4868 H       
  58 H58            2.0968    -2.1766    -0.8418 H       
  59 H59            0.2754     4.0584     0.3196 H       
  60 H60            1.6525     4.2395    -0.7936 H       
  61 H61            0.0045     4.0529    -1.4396 H       
@<TRIPOS>BOND
   1    1    2 ar
   2    1   37 1
   3    1    6 ar
   4    2    3 ar
   5    2   31 1
   6    3    4 ar
   7    3   39 1
   8    4    5 ar
   9    4    7 1
  10    5    6 ar
  11    5   10 1
  12    6   40 1
  13    7    8 1
  14    7   22 1
  15    8    9 2
  16    8   41 1
  17    9   10 1
  18    9   12 1
  19   10   11 2
  20   12   13 1
  21   12   14 2
  22   13   15 1
  23   15   16 1
  24   15   42 1
  25   15   43 1
  26   16   17 ar
  27   16   21 ar
  28   17   18 ar
  29   17   44 1
  30   18   19 ar
  31   18   45 1
  32   19   20 ar
  33   19   46 1
  34   20   21 ar
  35   20   47 1
  36   21   30 1
  37   22   23 1
  38   22   48 1
  39   22   49 1
  40   23   24 ar
  41   23   28 ar
  42   24   25 ar
  43   24   50 1
  44   25   26 ar
  45   25   51 1
  46   26   27 ar
  47   26   33 1
  48   27   28 ar
  49   27   52 1
  50   28   29 1
  51   30   53 1
  52   30   54 1
  53   30   55 1
  54   31   32 1
  55   32   56 1
  56   32   57 1
  57   32   58 1
  58   33   34 1
  59   33   35 1
  60   33   36 1
  61   37   38 1
  62   38   59 1
  63   38   60 1
  64   38   61 1

#	End of record

