#	Name: ASD03331782
#	Creating user name:	WinNT
#	Creation time:	15. 06. 2019 20:39

#	Modifying user name:	WinNT
#	Modification time:	15. 06. 2019 20:39

#	Program:	/corina/corina34_cracker 3.40 0067  02.08.2006

@<TRIPOS>MOLECULE
ASD03331782
  44   47    0    0    0
SMALL
NO_CHARGES


@<TRIPOS>ATOM
   1 O1             4.2311    -1.8405     2.3918 O.2     
   2 O2             2.8716    -0.2872     1.9562 O.2     
   3 N3            -0.0978     1.3055    -0.3908 N.pl3   
   4 N4             3.4608    -1.2986     1.6194 N.pl3   
   5 C5             1.7448    -1.8762    -0.0247 C.3     
   6 C6             1.2491    -0.4602    -0.1672 C.2     
   7 C7             2.0700     0.7488    -0.2107 C.ar    
   8 C8            -0.0431    -0.0648    -0.2796 C.2     
   9 C9             1.1762     1.8278    -0.3518 C.ar    
  10 C10            3.2430    -1.8634     0.2853 C.3     
  11 C11            1.5042    -2.6244    -1.3105 C.ar    
  12 C12           -1.2142    -0.9681    -0.2821 C.ar    
  13 C13            3.4453     0.9878    -0.1435 C.ar    
  14 C14            1.6781     3.1229    -0.4217 C.ar    
  15 C15            0.7908    -3.8084    -1.2981 C.ar    
  16 C16            1.9921    -2.1239    -2.5031 C.ar    
  17 C17            3.9155     2.2688    -0.2135 C.ar    
  18 C18            3.0381     3.3353    -0.3526 C.ar    
  19 C19           -2.2338    -0.7907    -1.2182 C.ar    
  20 C20           -1.3014    -2.0049     0.6478 C.ar    
  21 C21            0.5702    -4.4948    -2.4775 C.ar    
  22 C22            1.7714    -2.8102    -3.6826 C.ar    
  23 C23            1.0626    -3.9970    -3.6694 C.ar    
  24 C24           -3.3234    -1.6371    -1.2155 C.ar    
  25 C25           -2.3963    -2.8443     0.6398 C.ar    
  26 C26           -3.4063    -2.6599    -0.2875 C.ar    
  27 H27            1.2099    -2.3683     0.7876 H       
  28 H28            3.7621    -1.2556    -0.4557 H       
  29 H29            3.6291    -2.8822     0.2546 H       
  30 H30           -0.9111     1.8253    -0.4865 H       
  31 H31            4.1341     0.1630    -0.0356 H       
  32 H32            1.0042     3.9598    -0.5303 H       
  33 H33            0.4062    -4.1974    -0.3669 H       
  34 H34            2.5453    -1.1964    -2.5134 H       
  35 H35            4.9784     2.4529    -0.1611 H       
  36 H36            3.4252     4.3421    -0.4075 H       
  37 H37           -2.1704     0.0075    -1.9429 H       
  38 H38           -0.5134    -2.1501     1.3720 H       
  39 H39            0.0135    -5.4202    -2.4678 H       
  40 H40            2.1522    -2.4190    -4.6144 H       
  41 H41            0.8905    -4.5334    -4.5909 H       
  42 H42           -4.1134    -1.5007    -1.9392 H       
  43 H43           -2.4650    -3.6471     1.3590 H       
  44 H44           -4.2613    -3.3197    -0.2896 H       
@<TRIPOS>BOND
   1    1    4 2
   2    2    4 2
   3    3    8 1
   4    3    9 1
   5    3   30 1
   6    4   10 1
   7    5    6 1
   8    5   10 1
   9    5   11 1
  10    5   27 1
  11    6    7 1
  12    6    8 2
  13    7    9 ar
  14    7   13 ar
  15    8   12 1
  16    9   14 ar
  17   10   28 1
  18   10   29 1
  19   11   15 ar
  20   11   16 ar
  21   12   19 ar
  22   12   20 ar
  23   13   17 ar
  24   13   31 1
  25   14   18 ar
  26   14   32 1
  27   15   21 ar
  28   15   33 1
  29   16   22 ar
  30   16   34 1
  31   17   18 ar
  32   17   35 1
  33   18   36 1
  34   19   24 ar
  35   19   37 1
  36   20   25 ar
  37   20   38 1
  38   21   23 ar
  39   21   39 1
  40   22   23 ar
  41   22   40 1
  42   23   41 1
  43   24   26 ar
  44   24   42 1
  45   25   26 ar
  46   25   43 1
  47   26   44 1

#	End of record

