#	Name: ASD04590425
#	Creating user name:	WinNT
#	Creation time:	15. 06. 2019 20:50

#	Modifying user name:	WinNT
#	Modification time:	15. 06. 2019 20:50

#	Program:	/corina/corina34_cracker 3.40 0067  02.08.2006

@<TRIPOS>MOLECULE
ASD04590425
  40   43    0    0    0
SMALL
NO_CHARGES


@<TRIPOS>ATOM
   1 C1            -0.0168     1.3845     0.0097 C.ar    
   2 C2             0.0021    -0.0041     0.0020 C.ar    
   3 C3            -2.3905    -0.0459     0.0242 C.ar    
   4 C4            -2.4099     1.3599     0.0439 C.ar    
   5 C5            -1.2160     2.0673     0.0305 C.ar    
   6 N6            -3.6800    -0.4646     0.0435 N.2     
   7 C7            -4.4798     0.5737     0.0733 C.2     
   8 N8            -3.7417     1.7271     0.0749 N.pl3   
   9 C9            -5.9557     0.5092     0.1016 C.2     
  10 C10           -6.7363    -0.6699     0.1015 C.2     
  11 C11           -8.0406    -0.3021     0.1328 C.2     
  12 N12           -8.0900     1.0559     0.1521 N.pl3   
  13 N13           -6.7762     1.5408     0.1371 N.2     
  14 N14           -6.2479    -1.9862     0.0734 N.am    
  15 C15           -7.1075    -3.0242     0.0768 C.2     
  16 O16           -8.3062    -2.8209     0.1042 O.2     
  17 C17           -6.5944    -4.4071     0.0474 C.ar    
  18 C18           -1.1633    -0.7165     0.0089 C.ar    
  19 C19           -5.8940    -6.3458    -1.1940 C.ar    
  20 C20           -5.6306    -7.0068    -0.0080 C.ar    
  21 C21           -5.8501    -6.3807     1.2055 C.ar    
  22 C22           -6.3303    -5.0851     1.2423 C.ar    
  23 C23           -6.3745    -5.0499    -1.1756 C.ar    
  24 F24           -6.6315    -4.4062    -2.3353 F       
  25 F25           -6.5436    -4.4751     2.4288 F       
  26 C26           -1.1268    -2.2230    -0.0006 C.3     
  27 O27            0.2316    -2.6665    -0.0162 O.3     
  28 Cl28           1.4780     2.2672     0.0001 Cl      
  29 H29            0.9476    -0.5258    -0.0098 H       
  30 H30           -1.2253     3.1472     0.0367 H       
  31 H31           -4.0888     2.6327     0.0946 H       
  32 H32           -8.8896    -0.9695     0.1404 H       
  33 H33           -8.8956     1.5957     0.1757 H       
  34 H34           -5.2918    -2.1484     0.0515 H       
  35 H35           -5.7197    -6.8421    -2.1373 H       
  36 H36           -5.2556    -8.0194    -0.0296 H       
  37 H37           -5.6422    -6.9042     2.1269 H       
  38 H38           -1.6231    -2.6041     0.8919 H       
  39 H39           -1.6401    -2.5934    -0.8879 H       
  40 H40            0.3313    -3.6283    -0.0230 H       
@<TRIPOS>BOND
   1    1    2 ar
   2    1   28 1
   3    1    5 ar
   4    2   18 ar
   5    2   29 1
   6    3    4 ar
   7    3    6 1
   8    3   18 ar
   9    4    5 ar
  10    4    8 1
  11    5   30 1
  12    6    7 2
  13    7    8 1
  14    7    9 1
  15    8   31 1
  16    9   10 1
  17    9   13 2
  18   10   11 2
  19   10   14 1
  20   11   12 1
  21   11   32 1
  22   12   13 1
  23   12   33 1
  24   14   15 am
  25   14   34 1
  26   15   16 2
  27   15   17 1
  28   17   23 ar
  29   17   22 ar
  30   18   26 1
  31   19   20 ar
  32   19   23 ar
  33   19   35 1
  34   20   21 ar
  35   20   36 1
  36   21   22 ar
  37   21   37 1
  38   22   25 1
  39   23   24 1
  40   26   27 1
  41   26   38 1
  42   26   39 1
  43   27   40 1

#	End of record

