#	Name: ASD03730326
#	Creating user name:	WinNT
#	Creation time:	15. 06. 2019 20:44

#	Modifying user name:	WinNT
#	Modification time:	15. 06. 2019 20:44

#	Program:	/corina/corina34_cracker 3.40 0067  02.08.2006

@<TRIPOS>MOLECULE
ASD03730326
  60   65    0    0    0
SMALL
NO_CHARGES


@<TRIPOS>ATOM
   1 O1            -0.4272     1.1685     1.1497 O.3     
   2 C2            -0.3625    -0.2687     1.2088 C.3     
   3 O3             0.7387    -0.5975     0.3416 O.3     
   4 C4             1.5607     0.4927     0.3652 C.ar    
   5 C5             0.8426     1.5788     0.8604 C.ar    
   6 C6             2.8857     0.6483    -0.0000 C.ar    
   7 C7             3.5099     1.8861     0.1212 C.ar    
   8 C8             2.7794     2.9663     0.6073 C.ar    
   9 C9             1.4599     2.8127     0.9783 C.ar    
  10 O10            4.7950     2.2457    -0.1599 O.3     
  11 C11            3.7058     4.1526     0.5917 C.3     
  12 C12            4.8702     3.6785    -0.2888 C.3     
  13 N13            3.1313     6.3286     0.9877 N.am    
  14 C14            3.0469     5.3809     0.0327 C.2     
  15 C15            4.1642     4.5387     1.9662 C.ar    
  16 C16            4.8324     3.8631     2.9816 C.ar    
  17 C17            5.1219     4.5218     4.1789 C.ar    
  18 C18            4.7418     5.8383     4.3438 C.ar    
  19 C19            4.0789     6.5075     3.3348 C.ar    
  20 C20            3.7825     5.8645     2.1338 C.ar    
  21 C21            5.2344     2.4530     2.7947 C.2     
  22 O22            4.4136     1.6286     2.4423 O.2     
  23 N23            6.5110     2.0813     3.0151 N.am    
  24 C24            6.8666     0.7360     2.9469 C.ar    
  25 C25            8.2035     0.3702     3.0597 C.ar    
  26 C26            8.5426    -0.9694     2.9906 C.ar    
  27 C27            7.5289    -1.9009     2.8104 C.ar    
  28 C28            6.2224    -1.4666     2.7061 C.ar    
  29 N29            5.9283    -0.1826     2.7807 N.ar    
  30 C30            2.6027     7.6870     0.8408 C.3     
  31 C31            1.1543     7.7265     1.3321 C.3     
  32 C32            0.6022     9.1452     1.1787 C.3     
  33 C33           -0.8462     9.1847     1.6701 C.3     
  34 C34           -1.3982    10.6034     1.5167 C.3     
  35 O35            2.5392     5.4975    -1.0626 O.2     
  36 H36           -0.1608    -0.6015     2.2270 H       
  37 H37           -1.2876    -0.7093     0.8370 H       
  38 H38            3.4397    -0.1966    -0.3815 H       
  39 H39            0.9066     3.6571     1.3618 H       
  40 H40            5.8206     4.0522     0.0922 H       
  41 H41            4.7208     3.9824    -1.3248 H       
  42 H42            5.6404     4.0033     4.9719 H       
  43 H43            4.9650     6.3488     5.2690 H       
  44 H44            3.7873     7.5376     3.4769 H       
  45 H45            7.1823     2.7505     3.2212 H       
  46 H46            8.9667     1.1215     3.1990 H       
  47 H47            9.5725    -1.2833     3.0747 H       
  48 H48            7.7600    -2.9543     2.7520 H       
  49 H49            5.4306    -2.1876     2.5659 H       
  50 H50            3.2055     8.3772     1.4309 H       
  51 H51            2.6385     7.9793    -0.2087 H       
  52 H52            0.5515     7.0363     0.7420 H       
  53 H53            1.1185     7.4342     2.3816 H       
  54 H54            1.2051     9.8354     1.7688 H       
  55 H55            0.6380     9.4375     0.1292 H       
  56 H56           -1.4490     8.4945     1.0799 H       
  57 H57           -0.8819     8.8924     2.7195 H       
  58 H58           -0.7954    11.2936     2.1068 H       
  59 H59           -1.3625    10.8957     0.4672 H       
  60 H60           -2.4301    10.6315     1.8667 H       
@<TRIPOS>BOND
   1    1    2 1
   2    1    5 1
   3    2    3 1
   4    2   36 1
   5    2   37 1
   6    3    4 1
   7    4    5 ar
   8    4    6 ar
   9    5    9 ar
  10    6    7 ar
  11    6   38 1
  12    7    8 ar
  13    7   10 1
  14    8    9 ar
  15    8   11 1
  16    9   39 1
  17   10   12 1
  18   11   12 1
  19   11   14 1
  20   11   15 1
  21   12   40 1
  22   12   41 1
  23   13   14 am
  24   13   20 1
  25   13   30 1
  26   14   35 2
  27   15   16 ar
  28   15   20 ar
  29   16   17 ar
  30   16   21 1
  31   17   18 ar
  32   17   42 1
  33   18   19 ar
  34   18   43 1
  35   19   20 ar
  36   19   44 1
  37   21   22 2
  38   21   23 am
  39   23   24 1
  40   23   45 1
  41   24   25 ar
  42   24   29 ar
  43   25   26 ar
  44   25   46 1
  45   26   27 ar
  46   26   47 1
  47   27   28 ar
  48   27   48 1
  49   28   29 ar
  50   28   49 1
  51   30   31 1
  52   30   50 1
  53   30   51 1
  54   31   32 1
  55   31   52 1
  56   31   53 1
  57   32   33 1
  58   32   54 1
  59   32   55 1
  60   33   34 1
  61   33   56 1
  62   33   57 1
  63   34   58 1
  64   34   59 1
  65   34   60 1

#	End of record

