#	Name: ASD00069214
#	Creating user name:	WinNT
#	Creation time:	15. 06. 2019 18:29

#	Modifying user name:	WinNT
#	Modification time:	15. 06. 2019 18:29

#	Program:	/corina/corina34_cracker 3.40 0067  02.08.2006

@<TRIPOS>MOLECULE
ASD00069214
 100  106    0    0    0
SMALL
NO_CHARGES


@<TRIPOS>ATOM
   1 N1             0.5013     1.7670     0.0347 N.3     
   2 C2             0.5442     0.3014    -0.0460 C.3     
   3 C3             1.3309    -0.1195    -1.2894 C.3     
   4 C4             2.7507     0.4474    -1.2053 C.3     
   5 C5             2.6765     1.9711    -1.0733 C.3     
   6 C6             1.8508     2.3314     0.1639 C.3     
   7 C7             1.3930    -1.6236    -1.3602 C.2     
   8 O8             0.8606    -2.2936    -0.5008 O.2     
   9 N9             2.0403    -2.2241    -2.3784 N.am    
  10 C10            1.7571     3.8535     0.2886 C.3     
  11 C11            2.1007    -3.6863    -2.4472 C.3     
  12 C12            2.2995    -4.1207    -3.9007 C.3     
  13 C13            2.3626    -5.6477    -3.9725 C.3     
  14 C14            3.5334    -6.1502    -3.1254 C.3     
  15 C15            3.3346    -5.7157    -1.6719 C.3     
  16 C16            3.2715    -4.1887    -1.6000 C.3     
  17 C17           -2.0638     3.4746     1.8506 C.ar    
  18 N18           -1.2802     3.0709     0.8614 N.ar    
  19 C19           -0.3130     2.1835     1.0759 C.ar    
  20 C20           -0.1295     1.6776     2.3616 C.ar    
  21 C21           -0.9727     2.1256     3.3761 C.ar    
  22 N22           -1.9206     3.0173     3.0842 N.ar    
  23 C23           -0.1199     0.4680     6.4511 C.2     
  24 N24            0.0183     0.6505     5.1576 N.2     
  25 C25           -0.8190     1.6178     4.7603 C.2     
  26 C26           -1.5117     2.0567     5.8672 C.2     
  27 N27           -1.0693     1.3336     6.9192 N.pl3   
  28 C28            0.6223    -0.5135     7.2636 C.2     
  29 N29            1.4585    -1.3867     6.6680 N.am    
  30 O30            0.4799    -0.5350     8.4713 O.2     
  31 C31            2.0939    -2.3768     7.4274 C.ar    
  32 C32            2.4296    -3.5980     6.8428 C.ar    
  33 C33            3.0586    -4.5765     7.5968 C.ar    
  34 C34            3.3533    -4.3432     8.9273 C.ar    
  35 C35            3.0205    -3.1287     9.5121 C.ar    
  36 C36            2.3957    -2.1430     8.7602 C.ar    
  37 C37            0.4599    -6.5020     3.9115 C.3     
  38 N38            1.0879    -7.7141     3.3700 N.3     
  39 C39            0.8327    -7.8458     1.9298 C.3     
  40 C40            1.4428    -6.6528     1.1905 C.3     
  41 C41            0.8213    -5.3577     1.7210 C.3     
  42 C42            1.0570    -5.2692     3.2305 C.3     
  43 C43            0.3886    -4.0069     3.7801 C.3     
  44 C44            0.6792    -3.8931     5.2785 C.3     
  45 N45            2.1307    -3.8358     5.4937 N.3     
  46 C46            2.7878    -5.0593     5.0168 C.3     
  47 C47            2.5604    -5.2079     3.5106 C.3     
  48 N48            3.3205    -2.8958    10.8594 N.pl3   
  49 N49           -3.0553     4.4038     1.5878 N.pl3   
  50 H50            1.0311    -0.0972     0.8440 H       
  51 H51           -0.4716    -0.0887    -0.1096 H       
  52 H52            0.8369     0.2672    -2.1808 H       
  53 H53            3.2584     0.0307    -0.3353 H       
  54 H54            3.3013     0.1865    -2.1091 H       
  55 H55            3.6829     2.3769    -0.9700 H       
  56 H56            2.2037     2.3907    -1.9612 H       
  57 H57            2.3316     1.9233     1.0529 H       
  58 H58            2.4661    -1.6883    -3.0658 H       
  59 H59            1.1698     4.1103     1.1702 H       
  60 H60            2.7587     4.2725     0.3845 H       
  61 H61            1.2759     4.2619    -0.6001 H       
  62 H62            1.1699    -4.1067    -2.0664 H       
  63 H63            1.4653    -3.7628    -4.5042 H       
  64 H64            3.2302    -3.7003    -4.2815 H       
  65 H65            1.4318    -6.0681    -3.5917 H       
  66 H66            2.5042    -5.9572    -5.0080 H       
  67 H67            3.5783    -7.2380    -3.1765 H       
  68 H68            4.4641    -5.7298    -3.5062 H       
  69 H69            2.4038    -6.1362    -1.2910 H       
  70 H70            4.1687    -6.0737    -1.0683 H       
  71 H71            4.2023    -3.7683    -1.9809 H       
  72 H72            3.1299    -3.8792    -0.5645 H       
  73 H73            0.6473     0.9557     2.5664 H       
  74 H74           -2.2643     2.8311     5.8898 H       
  75 H75           -1.3698     1.4140     7.8379 H       
  76 H76            1.6201    -1.3294     5.7133 H       
  77 H77            3.3183    -5.5222     7.1446 H       
  78 H78            3.8431    -5.1071     9.5128 H       
  79 H79            2.1412    -1.1967     9.2141 H       
  80 H80           -0.6137    -6.5353     3.7258 H       
  81 H81            0.6411    -6.4475     4.9849 H       
  82 H82            2.0780    -7.7260     3.5643 H       
  83 H83            1.2831    -8.7685     1.5642 H       
  84 H84           -0.2424    -7.8716     1.7525 H       
  85 H85            2.5199    -6.6341     1.3561 H       
  86 H86            1.2396    -6.7434     0.1234 H       
  87 H87            1.2854    -4.5028     1.2292 H       
  88 H88           -0.2498    -5.3581     1.5190 H       
  89 H89            0.7848    -3.1317     3.2651 H       
  90 H90           -0.6882    -4.0667     3.6217 H       
  91 H91            0.2179    -2.9865     5.6701 H       
  92 H92            0.2694    -4.7612     5.7948 H       
  93 H93            3.8573    -4.9995     5.2185 H       
  94 H94            2.3685    -5.9221     5.5343 H       
  95 H95            3.0336    -6.1251     3.1598 H       
  96 H96            2.9928    -4.3528     2.9911 H       
  97 H97            3.7606    -3.5828    11.3841 H       
  98 H98            3.0881    -2.0475    11.2684 H       
  99 H99           -3.1692     4.7505     0.6890 H       
 100 H100          -3.6363     4.7083     2.3023 H       
@<TRIPOS>BOND
   1    1    2 1
   2    1    6 1
   3    1   19 1
   4    2    3 1
   5    2   50 1
   6    2   51 1
   7    3    4 1
   8    3    7 1
   9    3   52 1
  10    4    5 1
  11    4   53 1
  12    4   54 1
  13    5    6 1
  14    5   55 1
  15    5   56 1
  16    6   10 1
  17    6   57 1
  18    7    8 2
  19    7    9 am
  20    9   11 1
  21    9   58 1
  22   10   59 1
  23   10   60 1
  24   10   61 1
  25   11   12 1
  26   11   16 1
  27   11   62 1
  28   12   13 1
  29   12   63 1
  30   12   64 1
  31   13   14 1
  32   13   65 1
  33   13   66 1
  34   14   15 1
  35   14   67 1
  36   14   68 1
  37   15   16 1
  38   15   69 1
  39   15   70 1
  40   16   71 1
  41   16   72 1
  42   17   18 ar
  43   17   22 ar
  44   17   49 1
  45   18   19 ar
  46   19   20 ar
  47   20   21 ar
  48   20   73 1
  49   21   22 ar
  50   21   25 1
  51   23   24 2
  52   23   27 1
  53   23   28 1
  54   24   25 1
  55   25   26 2
  56   26   27 1
  57   26   74 1
  58   27   75 1
  59   28   29 am
  60   28   30 2
  61   29   31 1
  62   29   76 1
  63   31   32 ar
  64   31   36 ar
  65   32   33 ar
  66   32   45 1
  67   33   34 ar
  68   33   77 1
  69   34   35 ar
  70   34   78 1
  71   35   36 ar
  72   35   48 1
  73   36   79 1
  74   37   38 1
  75   37   42 1
  76   37   80 1
  77   37   81 1
  78   38   39 1
  79   38   82 1
  80   39   40 1
  81   39   83 1
  82   39   84 1
  83   40   41 1
  84   40   85 1
  85   40   86 1
  86   41   42 1
  87   41   87 1
  88   41   88 1
  89   42   43 1
  90   42   47 1
  91   43   44 1
  92   43   89 1
  93   43   90 1
  94   44   45 1
  95   44   91 1
  96   44   92 1
  97   45   46 1
  98   46   47 1
  99   46   93 1
 100   46   94 1
 101   47   95 1
 102   47   96 1
 103   48   97 1
 104   48   98 1
 105   49   99 1
 106   49  100 1

#	End of record

