#	Name: ASD01881178
#	Creating user name:	WinNT
#	Creation time:	15. 06. 2019 19:42

#	Modifying user name:	WinNT
#	Modification time:	15. 06. 2019 19:42

#	Program:	/corina/corina34_cracker 3.40 0067  02.08.2006

@<TRIPOS>MOLECULE
ASD01881178
  48   50    0    0    0
SMALL
NO_CHARGES


@<TRIPOS>ATOM
   1 Cl1            8.0806     4.5594     0.7361 Cl      
   2 N2            -0.0158     1.3115     0.0093 N.ar    
   3 C3             0.0021    -0.0041     0.0020 C.ar    
   4 N4             1.1309    -0.6861    -0.0124 N.ar    
   5 C5             2.3010    -0.0695    -0.0203 C.ar    
   6 C6             2.3346     1.3162    -0.0132 C.ar    
   7 C7             1.1204     2.0073     0.0021 C.ar    
   8 C8             3.6464     2.0579    -0.0212 C.3     
   9 O9             4.0487     2.2996    -1.3710 O.3     
  10 C10            5.2182     2.9628    -1.5559 C.ar    
  11 C11            5.6686     3.2310    -2.8453 C.ar    
  12 C12            6.8511     3.9021    -3.0322 C.ar    
  13 C13            7.6096     4.3198    -1.9332 C.ar    
  14 C14            7.1525     4.0485    -0.6392 C.ar    
  15 C15            5.9612     3.3780    -0.4582 C.ar    
  16 C16            7.6059     4.3419    -4.2619 C.3     
  17 N17            8.8142     5.0206    -3.7797 N.am    
  18 C18            8.8118     5.0053    -2.4357 C.2     
  19 O19            9.6796     5.4886    -1.7344 O.2     
  20 C20           -1.7622    -0.9993    -1.4284 C.3     
  21 C21           -1.3054    -0.7534     0.0110 C.3     
  22 C22            1.0975     3.4391     0.0100 C.1     
  23 N23            1.0793     4.5749     0.0163 N.1     
  24 C24            9.5029     7.0802    -4.9046 C.3     
  25 C25            9.8521     5.6172    -4.6242 C.3     
  26 C26            4.0016    -1.1250    -1.4841 C.3     
  27 C27            3.5817    -0.8636    -0.0363 C.3     
  28 H28            3.5294     3.0087     0.4988 H       
  29 H29            4.4053     1.4593     0.4825 H       
  30 H30            5.0882     2.9111    -3.6981 H       
  31 H31            5.6082     3.1684     0.5407 H       
  32 H32            7.8781     3.4754    -4.8645 H       
  33 H33            6.9980     5.0308    -4.8484 H       
  34 H34           -2.7078    -1.5413    -1.4219 H       
  35 H35           -1.8945    -0.0437    -1.9358 H       
  36 H36           -1.0095    -1.5880    -1.9529 H       
  37 H37           -1.1730    -1.7090     0.5184 H       
  38 H38           -2.0580    -0.1647     0.5355 H       
  39 H39            8.5426     7.1326    -5.4176 H       
  40 H40            9.4423     7.6261    -3.9632 H       
  41 H41           10.2752     7.5240    -5.5329 H       
  42 H42           10.8125     5.5647    -4.1112 H       
  43 H43            9.9128     5.0712    -5.5656 H       
  44 H44            3.2191    -1.6874    -1.9935 H       
  45 H45            4.1570    -0.1746    -1.9946 H       
  46 H46            4.9280    -1.6994    -1.4957 H       
  47 H47            4.3643    -0.3012     0.4731 H       
  48 H48            3.4264    -1.8140     0.4743 H       
@<TRIPOS>BOND
   1    1   14 1
   2    2    3 ar
   3    2    7 ar
   4    3    4 ar
   5    3   21 1
   6    4    5 ar
   7    5    6 ar
   8    5   27 1
   9    6    7 ar
  10    6    8 1
  11    7   22 1
  12    8    9 1
  13    8   28 1
  14    8   29 1
  15    9   10 1
  16   10   11 ar
  17   10   15 ar
  18   11   12 ar
  19   11   30 1
  20   12   13 ar
  21   12   16 1
  22   13   14 ar
  23   13   18 1
  24   14   15 ar
  25   15   31 1
  26   16   17 1
  27   16   32 1
  28   16   33 1
  29   17   18 am
  30   17   25 1
  31   18   19 2
  32   20   21 1
  33   20   34 1
  34   20   35 1
  35   20   36 1
  36   21   37 1
  37   21   38 1
  38   22   23 3
  39   24   25 1
  40   24   39 1
  41   24   40 1
  42   24   41 1
  43   25   42 1
  44   25   43 1
  45   26   27 1
  46   26   44 1
  47   26   45 1
  48   26   46 1
  49   27   47 1
  50   27   48 1

#	End of record

