#	Name: ASD00069227
#	Creating user name:	WinNT
#	Creation time:	15. 06. 2019 18:29

#	Modifying user name:	WinNT
#	Modification time:	15. 06. 2019 18:29

#	Program:	/corina/corina34_cracker 3.40 0067  02.08.2006

@<TRIPOS>MOLECULE
ASD00069227
  80   84    0    0    0
SMALL
NO_CHARGES


@<TRIPOS>ATOM
   1 N1            -0.0324     1.4122     0.4290 N.3     
   2 C2            -0.0748    -0.0554     0.4053 C.3     
   3 C3             0.5475    -0.5641    -0.8970 C.3     
   4 C4             1.9956    -0.0752    -0.9900 C.3     
   5 C5             2.0156     1.4540    -0.9144 C.3     
   6 C6             1.3507     1.9042     0.3884 C.3     
   7 C7             2.7944    -0.6464     0.1530 C.2     
   8 O8             3.0202     0.0310     1.1333 O.2     
   9 N9             3.2580    -1.9102     0.0859 N.am    
  10 N10            2.5800    -0.5113    -2.2653 N.3     
  11 C11            3.9348     0.0305    -2.4361 C.3     
  12 C12           -1.9249     1.5512     3.4609 C.ar    
  13 N13           -1.2805     1.0838     2.4018 N.ar    
  14 C14           -0.7046     1.9107     1.5337 C.ar    
  15 C15           -0.7858     3.2852     1.7499 C.ar    
  16 C16           -1.4716     3.7393     2.8743 C.ar    
  17 N17           -2.0234     2.8491     3.7000 N.ar    
  18 N18           -2.5158     0.6582     4.3377 N.pl3   
  19 C19           -3.2332     1.1537     5.5150 C.3     
  20 C20           -1.3786     7.3333     2.9505 C.2     
  21 N21           -1.0789     6.1790     2.3996 N.2     
  22 C22           -1.5864     5.1915     3.1492 C.2     
  23 C23           -2.2343     5.7658     4.2206 C.2     
  24 N24           -2.0999     7.1037     4.0892 N.pl3   
  25 C25           -0.9947     8.6584     2.4299 C.2     
  26 N26           -0.2746     8.7537     1.2946 N.am    
  27 O27           -1.3278     9.6654     3.0250 O.2     
  28 C28            0.1652    10.0058     0.8474 C.ar    
  29 C29            1.3916    10.1236     0.1947 C.ar    
  30 C30            1.8218    11.3681    -0.2461 C.ar    
  31 C31            1.0331    12.4862    -0.0366 C.ar    
  32 C32           -0.1829    12.3675     0.6109 C.ar    
  33 C33           -0.6207    11.1312     1.0476 C.ar    
  34 F34            3.0095    11.4876    -0.8787 F       
  35 N35            2.1875     8.9902    -0.0153 N.3     
  36 C36            2.4205     8.7688    -1.4482 C.3     
  37 C37            3.1670     7.4477    -1.6469 C.3     
  38 C38            4.5005     7.5028    -0.8964 C.3     
  39 C39            4.2324     7.7824     0.5849 C.3     
  40 C40            3.4550     9.0938     0.7189 C.3     
  41 C41            5.2242     6.1626    -1.0410 C.3     
  42 N42            6.5539     6.2550    -0.4235 N.3     
  43 H43            0.4855    -0.4487     1.2534 H       
  44 H44           -1.1104    -0.3899     0.4678 H       
  45 H45            0.5300    -1.6539    -0.9074 H       
  46 H46           -0.0206    -0.1824    -1.7453 H       
  47 H47            3.0469     1.8060    -0.9371 H       
  48 H48            1.4705     1.8675    -1.7629 H       
  49 H49            1.3505     2.9930     0.4387 H       
  50 H50            1.9043     1.5017     1.2367 H       
  51 H51            3.0163    -2.4763    -0.6638 H       
  52 H52            3.8333    -2.2536     0.7873 H       
  53 H53            2.5814    -1.5177    -2.3370 H       
  54 H54            4.5907    -0.3830    -1.6700 H       
  55 H55            4.3125    -0.2397    -3.4222 H       
  56 H56            3.9064     1.1161    -2.3429 H       
  57 H57           -0.3279     3.9813     1.0627 H       
  58 H58           -2.4549    -0.2957     4.1728 H       
  59 H59           -2.5500     1.7260     6.1426 H       
  60 H60           -4.0562     1.7935     5.1964 H       
  61 H61           -3.6272     0.3103     6.0820 H       
  62 H62           -2.7506     5.2460     5.0141 H       
  63 H63           -2.4508     7.7778     4.6921 H       
  64 H64           -0.0611     7.9550     0.7873 H       
  65 H65            1.3686    13.4538    -0.3795 H       
  66 H66           -0.7944    13.2430     0.7722 H       
  67 H67           -1.5733    11.0421     1.5486 H       
  68 H68            1.4641     8.7276    -1.9695 H       
  69 H69            3.0177     9.5874    -1.8497 H       
  70 H70            2.5642     6.6271    -1.2580 H       
  71 H71            3.3535     7.2914    -2.7094 H       
  72 H72            5.1193     8.2985    -1.3112 H       
  73 H73            3.6464     6.9670     1.0089 H       
  74 H74            5.1801     7.8652     1.1170 H       
  75 H75            4.0475     9.9109     0.3072 H       
  76 H76            3.2501     9.2886     1.7716 H       
  77 H77            4.6467     5.3825    -0.5449 H       
  78 H78            5.3307     5.9193    -2.0981 H       
  79 H79            6.4854     6.5427     0.5412 H       
  80 H80            7.0524     5.3816    -0.5058 H       
@<TRIPOS>BOND
   1    1    2 1
   2    1    6 1
   3    1   14 1
   4    2    3 1
   5    2   43 1
   6    2   44 1
   7    3    4 1
   8    3   45 1
   9    3   46 1
  10    4    5 1
  11    4    7 1
  12    4   10 1
  13    5    6 1
  14    5   47 1
  15    5   48 1
  16    6   49 1
  17    6   50 1
  18    7    8 2
  19    7    9 am
  20    9   51 1
  21    9   52 1
  22   10   11 1
  23   10   53 1
  24   11   54 1
  25   11   55 1
  26   11   56 1
  27   12   13 ar
  28   12   17 ar
  29   12   18 1
  30   13   14 ar
  31   14   15 ar
  32   15   16 ar
  33   15   57 1
  34   16   17 ar
  35   16   22 1
  36   18   19 1
  37   18   58 1
  38   19   59 1
  39   19   60 1
  40   19   61 1
  41   20   21 2
  42   20   24 1
  43   20   25 1
  44   21   22 1
  45   22   23 2
  46   23   24 1
  47   23   62 1
  48   24   63 1
  49   25   26 am
  50   25   27 2
  51   26   28 1
  52   26   64 1
  53   28   29 ar
  54   28   33 ar
  55   29   30 ar
  56   29   35 1
  57   30   31 ar
  58   30   34 1
  59   31   32 ar
  60   31   65 1
  61   32   33 ar
  62   32   66 1
  63   33   67 1
  64   35   36 1
  65   35   40 1
  66   36   37 1
  67   36   68 1
  68   36   69 1
  69   37   38 1
  70   37   70 1
  71   37   71 1
  72   38   39 1
  73   38   41 1
  74   38   72 1
  75   39   40 1
  76   39   73 1
  77   39   74 1
  78   40   75 1
  79   40   76 1
  80   41   42 1
  81   41   77 1
  82   41   78 1
  83   42   79 1
  84   42   80 1

#	End of record

