#	Name: ASD05130101
#	Creating user name:	WinNT
#	Creation time:	15. 06. 2019 20:56

#	Modifying user name:	WinNT
#	Modification time:	15. 06. 2019 20:56

#	Program:	/corina/corina34_cracker 3.40 0067  02.08.2006

@<TRIPOS>MOLECULE
ASD05130101
  55   58    0    0    0
SMALL
NO_CHARGES


@<TRIPOS>ATOM
   1 N1            -0.2257     1.5934     0.0814 N.am    
   2 C2             0.0951     0.5143     0.8224 C.2     
   3 O3             1.1847     0.4464     1.3576 O.2     
   4 N4            -0.7920    -0.4896     0.9703 N.am    
   5 C5            -0.4223    -1.6555     1.6500 C.ar    
   6 C6            -1.3613    -2.3510     2.4002 C.ar    
   7 C7            -0.9933    -3.5015     3.0700 C.ar    
   8 C8             0.3089    -3.9607     2.9944 C.ar    
   9 C9             1.2463    -3.2704     2.2481 C.ar    
  10 C10            0.8831    -2.1227     1.5711 C.ar    
  11 C11            0.6568     2.6732     0.0016 C.ar    
  12 C12            0.1602     3.9633    -0.1847 C.ar    
  13 C13            1.0217     5.0359    -0.2649 C.ar    
  14 C14            2.4007     4.8346    -0.1600 C.ar    
  15 C15            2.9036     3.5318     0.0282 C.ar    
  16 C16            2.0217     2.4585     0.1135 C.ar    
  17 F17           -1.1721     4.1623    -0.2875 F       
  18 N18            6.3990     3.4576     1.4729 N.am    
  19 C19            5.0714     3.6634     1.3718 C.2     
  20 C20            4.3610     3.3069     0.1406 C.2     
  21 C21            5.0641     2.7590    -0.9128 C.2     
  22 C22            6.4570     2.5554    -0.7754 C.ar    
  23 C23            7.2117     2.0023    -1.8178 C.ar    
  24 N24            8.5059     1.8193    -1.6745 N.ar    
  25 C25            9.1473     2.1438    -0.5567 C.ar    
  26 C26            8.4764     2.6969     0.5248 C.ar    
  27 C27            7.1066     2.9119     0.4271 C.ar    
  28 O28            4.4594     4.1472     2.3072 O.2     
  29 N29           10.5140     1.9248    -0.4692 N.pl3   
  30 C30           11.2353     2.2771     0.7563 C.3     
  31 C31            7.0973     3.8244     2.7074 C.3     
  32 C32            7.0955     2.6332     3.6676 C.3     
  33 C33            3.2985     5.9470    -0.2439 C.1     
  34 N34            4.0107     6.8295    -0.3104 N.1     
  35 H35           -1.0676     1.6185    -0.3997 H       
  36 H36           -1.6867    -0.4038     0.6055 H       
  37 H37           -2.3783    -1.9925     2.4603 H       
  38 H38           -1.7231    -4.0428     3.6536 H       
  39 H39            0.5944    -4.8601     3.5196 H       
  40 H40            2.2625    -3.6316     2.1911 H       
  41 H41            1.6146    -1.5865     0.9847 H       
  42 H42            0.6312     6.0324    -0.4093 H       
  43 H43            2.4008     1.4583     0.2625 H       
  44 H44            4.5584     2.4893    -1.8282 H       
  45 H45            6.7285     1.7246    -2.7429 H       
  46 H46            9.0097     2.9557     1.4276 H       
  47 H47           10.9923     1.5384    -1.2194 H       
  48 H48           12.2914     2.0345     0.6388 H       
  49 H49           11.1269     3.3447     0.9475 H       
  50 H50           10.8242     1.7143     1.5944 H       
  51 H51            8.1254     4.1018     2.4746 H       
  52 H52            6.5901     4.6685     3.1747 H       
  53 H53            7.6027     1.7891     3.2003 H       
  54 H54            7.6151     2.9061     4.5861 H       
  55 H55            6.0674     2.3557     3.9004 H       
@<TRIPOS>BOND
   1    1    2 am
   2    1   11 1
   3    1   35 1
   4    2    3 2
   5    2    4 am
   6    4    5 1
   7    4   36 1
   8    5    6 ar
   9    5   10 ar
  10    6    7 ar
  11    6   37 1
  12    7    8 ar
  13    7   38 1
  14    8    9 ar
  15    8   39 1
  16    9   10 ar
  17    9   40 1
  18   10   41 1
  19   11   12 ar
  20   11   16 ar
  21   12   13 ar
  22   12   17 1
  23   13   14 ar
  24   13   42 1
  25   14   15 ar
  26   14   33 1
  27   15   16 ar
  28   15   20 1
  29   16   43 1
  30   18   19 am
  31   18   27 1
  32   18   31 1
  33   19   20 1
  34   19   28 2
  35   20   21 2
  36   21   22 1
  37   21   44 1
  38   22   23 ar
  39   22   27 ar
  40   23   24 ar
  41   23   45 1
  42   24   25 ar
  43   25   26 ar
  44   25   29 1
  45   26   27 ar
  46   26   46 1
  47   29   30 1
  48   29   47 1
  49   30   48 1
  50   30   49 1
  51   30   50 1
  52   31   32 1
  53   31   51 1
  54   31   52 1
  55   32   53 1
  56   32   54 1
  57   32   55 1
  58   33   34 3

#	End of record

