#	Name: ASD03570032
#	Creating user name:	WinNT
#	Creation time:	15. 06. 2019 20:43

#	Modifying user name:	WinNT
#	Modification time:	15. 06. 2019 20:43

#	Program:	/corina/corina34_cracker 3.40 0067  02.08.2006

@<TRIPOS>MOLECULE
ASD03570032
  44   44    0    0    0
SMALL
NO_CHARGES


@<TRIPOS>ATOM
   1 C1             0.0703     1.5566    -0.0964 C.ar    
   2 C2             0.0410     0.1746    -0.0456 C.ar    
   3 C3             1.2219    -0.5429    -0.0370 C.ar    
   4 C4             2.4387     0.1252    -0.0798 C.ar    
   5 C5             2.4642     1.5134    -0.1312 C.ar    
   6 C6             1.2805     2.2245    -0.1390 C.ar    
   7 I7            -1.7954    -0.8316     0.0189 I       
   8 N8             3.6343    -0.5969    -0.0707 N.pl3   
   9 N9             4.8609     0.0786    -0.1139 N.pl3   
  10 C10            6.0588    -0.6449    -0.1049 C.2     
  11 C11            6.0327    -1.9794    -0.0550 C.2     
  12 C12            7.3141    -2.7632    -0.1763 C.3     
  13 C13            7.4933    -3.6426     1.0629 C.3     
  14 C14            8.7747    -4.4264     0.9416 C.2     
  15 O15            9.4730    -4.2951    -0.0357 O.2     
  16 O16            9.1403    -5.2704     1.9192 O.3     
  17 C17           10.6345    -6.8983     2.9428 C.3     
  18 C18           10.3866    -5.9922     1.7351 C.3     
  19 C19            7.3499     0.0661    -0.1504 C.2     
  20 O20            7.8567     0.4715     0.8768 O.2     
  21 O21            7.9677     0.2662    -1.3313 O.3     
  22 C22            9.7812     1.1043    -2.7239 C.3     
  23 C23            9.2355     0.9735    -1.3005 C.3     
  24 H24           -0.8541     2.1151    -0.1072 H       
  25 H25            1.1987    -1.6219     0.0034 H       
  26 H26            3.4088     2.0358    -0.1642 H       
  27 H27            1.2999     3.3036    -0.1790 H       
  28 H28            3.6153    -1.5660    -0.0345 H       
  29 H29            4.8799     1.0477    -0.1502 H       
  30 H30            5.0932    -2.4968     0.0723 H       
  31 H31            7.2724    -3.3924    -1.0654 H       
  32 H32            8.1550    -2.0745    -0.2577 H       
  33 H33            7.5350    -3.0135     1.9520 H       
  34 H34            6.6524    -4.3314     1.1443 H       
  35 H35           10.6962    -6.2912     3.8459 H       
  36 H36            9.8136    -7.6091     3.0382 H       
  37 H37           11.5701    -7.4401     2.8045 H       
  38 H38           10.3249    -6.5993     0.8319 H       
  39 H39           11.2075    -5.2814     1.6396 H       
  40 H40           10.7329     1.6352    -2.7007 H       
  41 H41            9.9292     0.1115    -3.1489 H       
  42 H42            9.0703     1.6593    -3.3360 H       
  43 H43            9.0875     1.9662    -0.8755 H       
  44 H44            9.9464     0.4185    -0.6884 H       
@<TRIPOS>BOND
   1    1    2 ar
   2    1    6 ar
   3    1   24 1
   4    2    3 ar
   5    2    7 1
   6    3    4 ar
   7    3   25 1
   8    4    5 ar
   9    4    8 1
  10    5    6 ar
  11    5   26 1
  12    6   27 1
  13    8    9 1
  14    8   28 1
  15    9   10 1
  16    9   29 1
  17   10   11 2
  18   10   19 1
  19   11   12 1
  20   11   30 1
  21   12   13 1
  22   12   31 1
  23   12   32 1
  24   13   14 1
  25   13   33 1
  26   13   34 1
  27   14   15 2
  28   14   16 1
  29   16   18 1
  30   17   18 1
  31   17   35 1
  32   17   36 1
  33   17   37 1
  34   18   38 1
  35   18   39 1
  36   19   20 2
  37   19   21 1
  38   21   23 1
  39   22   23 1
  40   22   40 1
  41   22   41 1
  42   22   42 1
  43   23   43 1
  44   23   44 1

#	End of record

