#	Name: ASD03331111
#	Creating user name:	WinNT
#	Creation time:	15. 06. 2019 20:38

#	Modifying user name:	WinNT
#	Modification time:	15. 06. 2019 20:38

#	Program:	/corina/corina34_cracker 3.40 0067  02.08.2006

@<TRIPOS>MOLECULE
ASD03331111
  52   55    0    0    0
SMALL
NO_CHARGES


@<TRIPOS>ATOM
   1 N1             0.6319     1.6304     0.2533 N.pl3   
   2 C2             0.6716     0.2771     0.1248 C.2     
   3 C3             1.9198    -0.5554    -0.0100 C.3     
   4 N4             2.8920    -0.1357     1.0115 N.3     
   5 C5             3.7409     0.9515     0.5207 C.3     
   6 C6             2.9658     1.8653    -0.4243 C.3     
   7 C7             1.7985     2.5148     0.3240 C.3     
   8 C8            -0.6812     1.9967     0.3146 C.2     
   9 N9            -1.4214     0.9149     0.2453 N.2     
  10 C10           -0.6163    -0.1643     0.1304 C.2     
  11 C11           -1.0540    -1.5676     0.0289 C.2     
  12 O12           -0.2294    -2.4561    -0.0714 O.2     
  13 N13           -2.3680    -1.8667     0.0471 N.am    
  14 C14           -2.8079    -3.2481    -0.1639 C.3     
  15 C15           -2.2554    -4.3175     0.7806 C.3     
  16 C16           -3.7141    -3.8712     0.8998 C.3     
  17 C17           -3.0453    -3.6426    -1.5988 C.2     
  18 N18           -2.9422    -2.7211    -2.5770 N.am    
  19 O19           -3.3291    -4.7893    -1.8735 O.2     
  20 C20           -3.2786    -3.0776    -3.9576 C.3     
  21 C21            3.7032    -1.2733     1.4651 C.3     
  22 C22           -1.1859     3.3810     0.4387 C.ar    
  23 C23           -2.2281     3.8237    -0.3806 C.ar    
  24 C24           -2.6957     5.1182    -0.2595 C.ar    
  25 C25           -2.1329     5.9759     0.6712 C.ar    
  26 C26           -1.0981     5.5411     1.4861 C.ar    
  27 C27           -0.6273     4.2483     1.3781 C.ar    
  28 F28           -2.5933     7.2409     0.7854 F       
  29 F29           -2.7769     2.9879    -1.2892 F       
  30 Cl30          -0.3982     6.6235     2.6489 Cl      
  31 H31            1.6732    -1.6076     0.1323 H       
  32 H32            2.3484    -0.4115    -1.0018 H       
  33 H33            4.1009     1.5351     1.3680 H       
  34 H34            4.5938     0.5283    -0.0098 H       
  35 H35            3.6301     2.6418    -0.8034 H       
  36 H36            2.5803     1.2801    -1.2591 H       
  37 H37            1.5580     3.4728    -0.1370 H       
  38 H38            2.0753     2.6701     1.3668 H       
  39 H39           -3.0225    -1.1673     0.1999 H       
  40 H40           -2.0641    -5.3065     0.3642 H       
  41 H41           -1.5647    -3.9932     1.5590 H       
  42 H42           -3.9830    -3.2534     1.7565 H       
  43 H43           -4.4823    -4.5667     0.5617 H       
  44 H44           -2.6452    -1.8219    -2.3669 H       
  45 H45           -2.6320    -3.8892    -4.2911 H       
  46 H46           -4.3191    -3.3985    -4.0067 H       
  47 H47           -3.1350    -2.2103    -4.6020 H       
  48 H48            4.1906    -1.7369     0.6074 H       
  49 H49            4.4596    -0.9230     2.1674 H       
  50 H50            3.0613    -2.0041     1.9570 H       
  51 H51           -3.5010     5.4620    -0.8918 H       
  52 H52            0.1752     3.9098     2.0167 H       
@<TRIPOS>BOND
   1    1    2 1
   2    1    7 1
   3    1    8 1
   4    2    3 1
   5    2   10 2
   6    3    4 1
   7    3   31 1
   8    3   32 1
   9    4    5 1
  10    4   21 1
  11    5    6 1
  12    5   33 1
  13    5   34 1
  14    6    7 1
  15    6   35 1
  16    6   36 1
  17    7   37 1
  18    7   38 1
  19    8    9 2
  20    8   22 1
  21    9   10 1
  22   10   11 1
  23   11   12 2
  24   11   13 am
  25   13   14 1
  26   13   39 1
  27   14   15 1
  28   14   16 1
  29   14   17 1
  30   15   16 1
  31   15   40 1
  32   15   41 1
  33   16   42 1
  34   16   43 1
  35   17   18 am
  36   17   19 2
  37   18   20 1
  38   18   44 1
  39   20   45 1
  40   20   46 1
  41   20   47 1
  42   21   48 1
  43   21   49 1
  44   21   50 1
  45   22   23 ar
  46   22   27 ar
  47   23   24 ar
  48   23   29 1
  49   24   25 ar
  50   24   51 1
  51   25   26 ar
  52   25   28 1
  53   26   27 ar
  54   26   30 1
  55   27   52 1

#	End of record

