#	Name: ASD08170388
#	Creating user name:	WinNT
#	Creation time:	15. 06. 2019 21:17

#	Modifying user name:	WinNT
#	Modification time:	15. 06. 2019 21:17

#	Program:	/corina/corina34_cracker 3.40 0067  02.08.2006

@<TRIPOS>MOLECULE
ASD08170388
  47   49    0    0    0
SMALL
NO_CHARGES


@<TRIPOS>ATOM
   1 C1            -0.0184     1.5028     0.0103 C.3     
   2 C2             0.0021    -0.0041     0.0020 C.2     
   3 N3            -1.1558    -0.6938     0.0094 N.am    
   4 C4            -1.1370    -2.0844     0.0017 C.2     
   5 S5            -2.5152    -3.1017     0.0094 S.3     
   6 C6            -1.4518    -4.5090    -0.0083 C.2     
   7 C7            -1.8869    -5.9518    -0.0119 C.3     
   8 C8            -2.0203    -6.4479     1.4293 C.3     
   9 C9            -2.6450    -8.5848     3.1915 C.3     
  10 C10           -3.0822   -10.0412     3.3603 C.3     
  11 C11           -3.1660   -10.3737     4.8277 C.2     
  12 S12           -1.8581   -11.0146     5.8242 S.3     
  13 C13           -2.9577   -11.0169     7.2048 C.2     
  14 N14           -2.6513   -11.4247     8.4946 N.pl3   
  15 N15           -0.0715    -2.8270    -0.0181 N.2     
  16 N16           -0.2299    -4.0795    -0.0176 N.2     
  17 N17           -4.2076   -10.2346     5.5815 N.2     
  18 N18           -4.1086   -10.5666     6.7940 N.2     
  19 O19            1.0605    -0.5961    -0.0113 O.2     
  20 S20           -2.5440    -8.1846     1.4250 S.3     
  21 C21            1.3954     2.0244    -0.0004 C.ar    
  22 C22            1.8466     2.8196     1.0364 C.ar    
  23 C23            3.1435     3.2981     1.0266 C.ar    
  24 C24            2.2429     1.7030    -1.0442 C.ar    
  25 C25            3.5397     2.1815    -1.0540 C.ar    
  26 C26            3.9893     2.9810    -0.0198 C.ar    
  27 C27           -0.7584     2.0096    -1.2292 C.3     
  28 H28           -0.5286     1.8543     0.9071 H       
  29 H29           -2.0023    -0.2203     0.0200 H       
  30 H30           -2.8487    -6.0401    -0.5170 H       
  31 H31           -1.1446    -6.5538    -0.5360 H       
  32 H32           -1.0585    -6.3596     1.9345 H       
  33 H33           -2.7626    -5.8459     1.9535 H       
  34 H34           -3.3716    -7.9293     3.6715 H       
  35 H35           -1.6675    -8.4431     3.6525 H       
  36 H36           -4.0597   -10.1829     2.8992 H       
  37 H37           -2.3556   -10.6967     2.8802 H       
  38 H38           -1.7603   -11.7466     8.7028 H       
  39 H39           -3.3281   -11.3881     9.1885 H       
  40 H40            1.1858     3.0674     1.8539 H       
  41 H41            3.4958     3.9200     1.8362 H       
  42 H42            1.8918     1.0778    -1.8518 H       
  43 H43            4.2019     1.9301    -1.8693 H       
  44 H44            5.0025     3.3549    -0.0275 H       
  45 H45           -0.7731     3.0995    -1.2232 H       
  46 H46           -0.2482     1.6581    -2.1260 H       
  47 H47           -1.7809     1.6323    -1.2215 H       
@<TRIPOS>BOND
   1    1    2 1
   2    1   21 1
   3    1   27 1
   4    1   28 1
   5    2    3 am
   6    2   19 2
   7    3    4 1
   8    3   29 1
   9    4    5 1
  10    4   15 2
  11    5    6 1
  12    6    7 1
  13    6   16 2
  14    7    8 1
  15    7   30 1
  16    7   31 1
  17    8   20 1
  18    8   32 1
  19    8   33 1
  20    9   10 1
  21    9   20 1
  22    9   34 1
  23    9   35 1
  24   10   11 1
  25   10   36 1
  26   10   37 1
  27   11   12 1
  28   11   17 2
  29   12   13 1
  30   13   14 1
  31   13   18 2
  32   14   38 1
  33   14   39 1
  34   15   16 1
  35   17   18 1
  36   21   22 ar
  37   21   24 ar
  38   22   23 ar
  39   22   40 1
  40   23   26 ar
  41   23   41 1
  42   24   25 ar
  43   24   42 1
  44   25   26 ar
  45   25   43 1
  46   26   44 1
  47   27   45 1
  48   27   46 1
  49   27   47 1

#	End of record

