#	Name: ASD04910248
#	Creating user name:	WinNT
#	Creation time:	15. 06. 2019 20:55

#	Modifying user name:	WinNT
#	Modification time:	15. 06. 2019 20:55

#	Program:	/corina/corina34_cracker 3.40 0067  02.08.2006

@<TRIPOS>MOLECULE
ASD04910248
  22   22    0    0    0
SMALL
NO_CHARGES


@<TRIPOS>ATOM
   1 C1            -0.0184     1.5028     0.0103 C.2     
   2 C2             0.0021    -0.0041     0.0020 C.3     
   3 C3             1.4513    -0.4944    -0.0145 C.3     
   4 C4             1.4720    -2.0242    -0.0229 C.3     
   5 O5             1.0234     2.1233     0.0037 O.2     
   6 C6            -2.5106     1.5172     0.0222 C.ar    
   7 C7            -1.3020     2.2208     0.0203 C.ar    
   8 C8            -1.3351     3.6237     0.0285 C.ar    
   9 C9            -2.5673     4.2497     0.0382 C.ar    
  10 C10           -3.7195     3.4800     0.0395 C.ar    
  11 N11           -3.6589     2.1604     0.0320 N.ar    
  12 Cl12          -5.2689     4.2630     0.0516 Cl      
  13 H13           -0.4983    -0.3791     0.8948 H       
  14 H14           -0.5153    -0.3696    -0.8850 H       
  15 H15            1.9516    -0.1193    -0.9073 H       
  16 H16            1.9686    -0.1289     0.8726 H       
  17 H17            0.9717    -2.3993     0.8699 H       
  18 H18            0.9547    -2.3897    -0.9099 H       
  19 H19            2.5045    -2.3735    -0.0346 H       
  20 H20           -2.5017     0.4373     0.0114 H       
  21 H21           -0.4213     4.1994     0.0277 H       
  22 H22           -2.6315     5.3278     0.0451 H       
@<TRIPOS>BOND
   1    1    2 1
   2    1    5 2
   3    1    7 1
   4    2    3 1
   5    2   13 1
   6    2   14 1
   7    3    4 1
   8    3   15 1
   9    3   16 1
  10    4   17 1
  11    4   18 1
  12    4   19 1
  13    6    7 ar
  14    6   11 ar
  15    6   20 1
  16    7    8 ar
  17    8    9 ar
  18    8   21 1
  19    9   10 ar
  20    9   22 1
  21   10   11 ar
  22   10   12 1

#	End of record

