#	Name: ASD02770095
#	Creating user name:	WinNT
#	Creation time:	15. 06. 2019 20:26

#	Modifying user name:	WinNT
#	Modification time:	15. 06. 2019 20:26

#	Program:	/corina/corina34_cracker 3.40 0067  02.08.2006

@<TRIPOS>MOLECULE
ASD02770095
  32   34    0    0    0
SMALL
NO_CHARGES


@<TRIPOS>ATOM
   1 C1            -0.0184     1.5028     0.0103 C.2     
   2 C2             0.0021    -0.0041     0.0020 C.3     
   3 C3             1.4513    -0.4944    -0.0145 C.3     
   4 O4             1.0236     2.1234     0.0037 O.2     
   5 N5            -1.1946     2.1607     0.0195 N.am    
   6 C6             1.4687    -2.6012    -1.2062 C.2     
   7 N7             1.4712    -1.9592    -0.0225 N.am    
   8 C8             1.4917    -2.6138     1.1541 C.2     
   9 C9             1.5125    -4.0837     1.1866 C.ar    
  10 C10            1.5105    -4.7893    -0.0381 C.ar    
  11 C11            1.5296    -6.1997    -0.0459 C.ar    
  12 C12            1.5261    -6.8725    -1.2802 C.ar    
  13 C13            1.5045    -6.1619    -2.4459 C.ar    
  14 C14            1.4860    -4.7721    -2.4514 C.ar    
  15 C15            1.4887    -4.0705    -1.2549 C.ar    
  16 C16            1.5511    -6.8858     1.1810 C.ar    
  17 C17            1.5531    -6.1877     2.3544 C.ar    
  18 C18            1.5335    -4.7981     2.3753 C.ar    
  19 O19            1.4934    -1.9859     2.1955 O.2     
  20 O20            1.4447    -1.9622    -2.2406 O.2     
  21 H21           -0.4983    -0.3791     0.8948 H       
  22 H22           -0.5153    -0.3696    -0.8850 H       
  23 H23            1.9516    -0.1193    -0.9073 H       
  24 H24            1.9686    -0.1289     0.8726 H       
  25 H25           -2.0280     1.6644     0.0207 H       
  26 H26           -1.2077     3.1306     0.0248 H       
  27 H27            1.5409    -7.9521    -1.3064 H       
  28 H28            1.5021    -6.6926    -3.3865 H       
  29 H29            1.4694    -4.2373    -3.3895 H       
  30 H30            1.5656    -7.9656     1.1953 H       
  31 H31            1.5694    -6.7285     3.2891 H       
  32 H32            1.5353    -4.2734     3.3193 H       
@<TRIPOS>BOND
   1    1    2 1
   2    1    4 2
   3    1    5 am
   4    2    3 1
   5    2   21 1
   6    2   22 1
   7    3    7 1
   8    3   23 1
   9    3   24 1
  10    5   25 1
  11    5   26 1
  12    6    7 am
  13    6   15 1
  14    6   20 2
  15    7    8 am
  16    8    9 1
  17    8   19 2
  18    9   10 ar
  19    9   18 ar
  20   10   11 ar
  21   10   15 ar
  22   11   12 ar
  23   11   16 ar
  24   12   13 ar
  25   12   27 1
  26   13   14 ar
  27   13   28 1
  28   14   15 ar
  29   14   29 1
  30   16   17 ar
  31   16   30 1
  32   17   18 ar
  33   17   31 1
  34   18   32 1

#	End of record

