#	Name: ASD01028545
#	Creating user name:	WinNT
#	Creation time:	15. 06. 2019 18:57

#	Modifying user name:	WinNT
#	Modification time:	15. 06. 2019 18:57

#	Program:	/corina/corina34_cracker 3.40 0067  02.08.2006

@<TRIPOS>MOLECULE
ASD01028545
  49   53    0    0    0
SMALL
NO_CHARGES


@<TRIPOS>ATOM
   1 N1            -0.0169     1.3921     0.0097 N.2     
   2 N2             0.0021    -0.0041     0.0020 N.pl3   
   3 C3             1.1072     2.0742     0.0026 C.2     
   4 C4             2.3533     1.4122    -0.0128 C.2     
   5 C5             2.4034     0.0542    -0.0206 C.2     
   6 C6             1.2001    -0.6769    -0.0130 C.2     
   7 N7             0.9139    -1.9687    -0.0172 N.2     
   8 N8            -0.3645    -2.1206    -0.0058 N.2     
   9 C9            -0.9587    -0.9533     0.0061 C.2     
  10 C10           -2.4463    -0.7128     0.0218 C.3     
  11 C11            1.0649     3.5571     0.0105 C.2     
  12 N12           -2.9151    -0.6427     1.4080 N.pl3   
  13 C13           -4.2591    -0.4265     1.6757 C.ar    
  14 C14           -5.1755    -0.2740     0.6485 C.ar    
  15 C15           -6.5147    -0.0586     0.9455 C.ar    
  16 N16           -6.9455     0.0064     2.1840 N.ar    
  17 C17           -6.1158    -0.1321     3.2234 C.ar    
  18 C18           -4.7364    -0.3607     3.0081 C.ar    
  19 C19           -6.5919    -0.0605     4.5458 C.ar    
  20 C20           -5.6916    -0.2107     5.5676 C.ar    
  21 C21           -4.3404    -0.4284     5.2787 C.ar    
  22 N22           -3.9076    -0.5003     4.0438 N.ar    
  23 O23           -6.1102    -0.1479     6.8585 O.3     
  24 C24            2.1771     4.4222     0.0040 C.2     
  25 N25            1.7347     5.6514     0.0145 N.2     
  26 N26            0.3351     5.6208     0.0280 N.pl3   
  27 C27           -0.0587     4.3324     0.0194 C.2     
  28 C28           -5.1161    -0.3132     7.8717 C.3     
  29 C29           -0.5491     6.7888     0.0430 C.3     
  30 C30           -0.1853     7.6887     1.2256 C.3     
  31 F31           -0.3362     6.9743     2.4190 F       
  32 F32            1.1426     8.1106     1.0994 F       
  33 F33           -1.0297     8.8041     1.2399 F       
  34 H34            3.2685     1.9856    -0.0188 H       
  35 H35            3.3542    -0.4578    -0.0321 H       
  36 H36           -2.6679     0.2267    -0.4846 H       
  37 H37           -2.9520    -1.5304    -0.4918 H       
  38 H38           -2.2857    -0.7475     2.1387 H       
  39 H39           -4.8496    -0.3222    -0.3800 H       
  40 H40           -7.2204     0.0588     0.1364 H       
  41 H41           -7.6389     0.1086     4.7498 H       
  42 H42           -3.6389    -0.5454     6.0915 H       
  43 H43            3.2144     4.1215    -0.0071 H       
  44 H44           -1.0786     3.9772     0.0261 H       
  45 H45           -4.6461    -1.2907     7.7635 H       
  46 H46           -4.3610     0.4662     7.7704 H       
  47 H47           -5.5830    -0.2414     8.8540 H       
  48 H48           -0.4316     7.3454    -0.8868 H       
  49 H49           -1.5837     6.4600     0.1414 H       
@<TRIPOS>BOND
   1    1    2 1
   2    1    3 2
   3    2    6 1
   4    2    9 1
   5    3    4 1
   6    3   11 1
   7    4    5 2
   8    4   34 1
   9    5    6 1
  10    5   35 1
  11    6    7 2
  12    7    8 1
  13    8    9 2
  14    9   10 1
  15   10   12 1
  16   10   36 1
  17   10   37 1
  18   11   24 1
  19   11   27 2
  20   12   13 1
  21   12   38 1
  22   13   14 ar
  23   13   18 ar
  24   14   15 ar
  25   14   39 1
  26   15   16 ar
  27   15   40 1
  28   16   17 ar
  29   17   18 ar
  30   17   19 ar
  31   18   22 ar
  32   19   20 ar
  33   19   41 1
  34   20   21 ar
  35   20   23 1
  36   21   22 ar
  37   21   42 1
  38   23   28 1
  39   24   25 2
  40   24   43 1
  41   25   26 1
  42   26   27 1
  43   26   29 1
  44   27   44 1
  45   28   45 1
  46   28   46 1
  47   28   47 1
  48   29   30 1
  49   29   48 1
  50   29   49 1
  51   30   32 1
  52   30   33 1
  53   30   31 1

#	End of record

