#	Name: ASD00170423
#	Creating user name:	WinNT
#	Creation time:	15. 06. 2019 18:32

#	Modifying user name:	WinNT
#	Modification time:	15. 06. 2019 18:32

#	Program:	/corina/corina34_cracker 3.40 0067  02.08.2006

@<TRIPOS>MOLECULE
ASD00170423
  41   43    0    0    0
SMALL
NO_CHARGES


@<TRIPOS>ATOM
   1 C1             0.2544     1.3894     0.0649 C.2     
   2 C2             0.2216     0.0144     0.0900 C.2     
   3 C3            -1.1266    -0.5124     0.0578 C.2     
   4 C4            -2.0542     0.4310     0.0108 C.2     
   5 S5            -1.3254     2.0268     0.0107 S.3     
   6 C6            -1.4421    -1.9859     0.0755 C.3     
   7 N7             1.4072     2.1481     0.0865 N.pl3   
   8 C8             1.4187    -0.8244     0.1434 C.2     
   9 C9             2.0035    -1.3587    -1.1053 C.ar    
  10 O10            1.9338    -1.0826     1.2162 O.2     
  11 C11            3.0773    -2.2492    -1.0512 C.ar    
  12 C12            3.6181    -2.7446    -2.2190 C.ar    
  13 C13            3.0981    -2.3602    -3.4439 C.ar    
  14 C14            2.0331    -1.4766    -3.5039 C.ar    
  15 C15            1.4802    -0.9791    -2.3427 C.ar    
  16 Cl16           3.7842    -2.9879    -4.9098 Cl      
  17 N17           -2.8923    -2.1738     0.1647 N.pl3   
  18 C18           -3.6784    -2.3949    -1.0516 C.3     
  19 C19           -3.5254    -2.1421     1.4093 C.ar    
  20 C20           -4.9081    -2.2478     1.4899 C.ar    
  21 C21           -5.5308    -2.2166     2.7221 C.ar    
  22 C22           -4.7794    -2.0802     3.8750 C.ar    
  23 C23           -3.4028    -1.9747     3.7984 C.ar    
  24 C24           -2.7732    -2.0105     2.5697 C.ar    
  25 H25           -3.1174     0.2434    -0.0195 H       
  26 H26           -1.0715    -2.4479    -0.8396 H       
  27 H27           -0.9620    -2.4500     0.9370 H       
  28 H28            2.2693     1.7172     0.1956 H       
  29 H29            1.3551     3.1121    -0.0073 H       
  30 H30            3.4838    -2.5494    -0.0967 H       
  31 H31            4.4491    -3.4333    -2.1785 H       
  32 H32            1.6322    -1.1799    -4.4618 H       
  33 H33            0.6499    -0.2902    -2.3906 H       
  34 H34           -3.7362    -3.4637    -1.2576 H       
  35 H35           -4.6836    -1.9970    -0.9119 H       
  36 H36           -3.2005    -1.8885    -1.8902 H       
  37 H37           -5.4955    -2.3540     0.5898 H       
  38 H38           -6.6058    -2.2984     2.7855 H       
  39 H39           -5.2690    -2.0557     4.8374 H       
  40 H40           -2.8189    -1.8683     4.7007 H       
  41 H41           -1.6980    -1.9284     2.5106 H       
@<TRIPOS>BOND
   1    1    2 2
   2    1    7 1
   3    1    5 1
   4    2    3 1
   5    2    8 1
   6    3    4 2
   7    3    6 1
   8    4    5 1
   9    4   25 1
  10    6   17 1
  11    6   26 1
  12    6   27 1
  13    7   28 1
  14    7   29 1
  15    8    9 1
  16    8   10 2
  17    9   11 ar
  18    9   15 ar
  19   11   12 ar
  20   11   30 1
  21   12   13 ar
  22   12   31 1
  23   13   14 ar
  24   13   16 1
  25   14   15 ar
  26   14   32 1
  27   15   33 1
  28   17   18 1
  29   17   19 1
  30   18   34 1
  31   18   35 1
  32   18   36 1
  33   19   20 ar
  34   19   24 ar
  35   20   21 ar
  36   20   37 1
  37   21   22 ar
  38   21   38 1
  39   22   23 ar
  40   22   39 1
  41   23   24 ar
  42   23   40 1
  43   24   41 1

#	End of record

