#	Name: ASD06510001
#	Creating user name:	WinNT
#	Creation time:	15. 06. 2019 21:06

#	Modifying user name:	WinNT
#	Modification time:	15. 06. 2019 21:06

#	Program:	/corina/corina34_cracker 3.40 0067  02.08.2006

@<TRIPOS>MOLECULE
ASD06510001
  24   24    0    0    0
SMALL
NO_CHARGES


@<TRIPOS>ATOM
   1 C1            -0.0187     1.5267     0.0104 C.3     
   2 C2             0.0021    -0.0041     0.0020 C.3     
   3 C3            -1.4359    -0.5268     0.0737 C.3     
   4 C4            -2.1111     0.0385     1.3271 C.3     
   5 C5            -2.0503     1.5676     1.2843 C.3     
   6 C6            -2.6693     2.1388     2.5616 C.3     
   7 O7             1.3219     2.0215     0.0003 O.3     
   8 O8             0.6189    -0.4667    -1.2011 O.3     
   9 O9            -1.4229    -1.9542     0.1404 O.3     
  10 O10           -1.4299    -0.4342     2.4909 O.3     
  11 O11           -0.6874     1.9862     1.1868 O.3     
  12 O12           -2.7185     3.5641     2.4710 O.3     
  13 H13           -0.5462     1.8879    -0.8724 H       
  14 H14            0.5644    -0.3655     0.8630 H       
  15 H15           -1.9849    -0.2069    -0.8119 H       
  16 H16           -3.1519    -0.2839     1.3570 H       
  17 H17           -2.6047     1.9294     0.4184 H       
  18 H18           -3.6794     1.7473     2.6824 H       
  19 H19           -2.0627     1.8500     3.4199 H       
  20 H20            1.3850     2.9865     0.0049 H       
  21 H21            1.5318    -0.1688    -1.3148 H       
  22 H22           -1.0029    -2.3796    -0.6197 H       
  23 H23           -1.4248    -1.3971     2.5798 H       
  24 H24           -3.1004     3.9947     3.2480 H       
@<TRIPOS>BOND
   1    1    2 1
   2    1    7 1
   3    1   11 1
   4    1   13 1
   5    2    3 1
   6    2    8 1
   7    2   14 1
   8    3    4 1
   9    3    9 1
  10    3   15 1
  11    4    5 1
  12    4   10 1
  13    4   16 1
  14    5    6 1
  15    5   11 1
  16    5   17 1
  17    6   12 1
  18    6   18 1
  19    6   19 1
  20    7   20 1
  21    8   21 1
  22    9   22 1
  23   10   23 1
  24   12   24 1

#	End of record

