#	Name: ASD01882012
#	Creating user name:	WinNT
#	Creation time:	15. 06. 2019 19:43

#	Modifying user name:	WinNT
#	Modification time:	15. 06. 2019 19:43

#	Program:	/corina/corina34_cracker 3.40 0067  02.08.2006

@<TRIPOS>MOLECULE
ASD01882012
  55   58    0    0    0
SMALL
NO_CHARGES


@<TRIPOS>ATOM
   1 N1             0.0827     1.3924     0.2202 N.am    
   2 C2             0.0289    -0.0675     0.0222 C.3     
   3 C3             1.4412    -0.5726     0.4096 C.3     
   4 C4             2.3399     0.5717    -0.1293 C.3     
   5 C5             1.4825     1.8306     0.1188 C.3     
   6 C6            -0.9764     2.1935     0.4503 C.2     
   7 O7            -2.1028     1.7401     0.4026 O.2     
   8 O8            -0.7865     3.4960     0.7330 O.3     
   9 C9            -1.0285    -0.6901     0.9361 C.3     
  10 O10           -2.3308    -0.3202     0.4788 O.3     
  11 N11           -6.7698    -2.0983     3.1504 N.pl3   
  12 N12           -7.7111    -1.4715     2.3204 N.2     
  13 N13           -7.0995    -0.8238     1.3925 N.2     
  14 C14           -5.7653    -0.9622     1.5256 C.ar    
  15 C15           -5.5300    -1.7762     2.6472 C.ar    
  16 C16           -4.6743    -0.4724     0.7945 C.ar    
  17 C17           -3.3912    -0.7944     1.1859 C.ar    
  18 C18           -3.1740    -1.6018     2.2998 C.ar    
  19 C19           -4.2277    -2.0877     3.0213 C.ar    
  20 C20           -7.0510    -2.9273     4.3251 C.3     
  21 C21           -7.1907    -4.3892     3.8961 C.3     
  22 C22           -7.3707    -5.4349     4.9984 C.3     
  23 C23           -8.5512    -5.0586     4.1006 C.3     
  24 Br24          -4.9597     0.6244    -0.7193 Br      
  25 C25           -1.9728     4.2991     0.9696 C.3     
  26 C26           -2.7459     3.7284     2.1603 C.3     
  27 C27           -1.5606     5.7409     1.2729 C.3     
  28 C28           -2.8622     4.2740    -0.2751 C.3     
  29 H29           -0.1848    -0.3012    -1.0208 H       
  30 H30            1.5385    -0.6695     1.4909 H       
  31 H31            1.6689    -1.5154    -0.0877 H       
  32 H32            3.2737     0.6247     0.4303 H       
  33 H33            2.5338     0.4409    -1.1939 H       
  34 H34            1.5941     2.5252    -0.7138 H       
  35 H35            1.7889     2.3106     1.0483 H       
  36 H36           -0.9315    -1.7757     0.9170 H       
  37 H37           -0.8855    -0.3304     1.9550 H       
  38 H38           -2.1644    -1.8465     2.5951 H       
  39 H39           -4.0488    -2.7133     3.8834 H       
  40 H40           -6.2328    -2.8348     5.0393 H       
  41 H41           -7.9789    -2.5950     4.7906 H       
  42 H42           -6.6142    -4.6784     3.0174 H       
  43 H43           -6.9130    -6.4121     4.8447 H       
  44 H44           -7.3897    -5.0813     6.0293 H       
  45 H45           -9.3467    -4.4575     4.5409 H       
  46 H46           -8.8701    -5.7884     3.3564 H       
  47 H47           -2.1123     3.7463     3.0471 H       
  48 H48           -3.6365     4.3312     2.3379 H       
  49 H49           -3.0395     2.7012     1.9442 H       
  50 H50           -1.0099     6.1475     0.4247 H       
  51 H51           -2.4512     6.3437     1.4505 H       
  52 H52           -0.9270     5.7588     2.1597 H       
  53 H53           -3.1559     3.2468    -0.4912 H       
  54 H54           -3.7528     4.8768    -0.0975 H       
  55 H55           -2.3115     4.6806    -1.1234 H       
@<TRIPOS>BOND
   1    1    2 1
   2    1    5 1
   3    1    6 am
   4    2    3 1
   5    2    9 1
   6    2   29 1
   7    3    4 1
   8    3   30 1
   9    3   31 1
  10    4    5 1
  11    4   32 1
  12    4   33 1
  13    5   34 1
  14    5   35 1
  15    6    7 2
  16    6    8 1
  17    8   25 1
  18    9   10 1
  19    9   36 1
  20    9   37 1
  21   10   17 1
  22   11   12 1
  23   11   15 1
  24   11   20 1
  25   12   13 2
  26   13   14 1
  27   14   15 ar
  28   14   16 ar
  29   15   19 ar
  30   16   17 ar
  31   16   24 1
  32   17   18 ar
  33   18   19 ar
  34   18   38 1
  35   19   39 1
  36   20   21 1
  37   20   40 1
  38   20   41 1
  39   21   22 1
  40   21   23 1
  41   21   42 1
  42   22   23 1
  43   22   43 1
  44   22   44 1
  45   23   45 1
  46   23   46 1
  47   25   26 1
  48   25   28 1
  49   25   27 1
  50   26   47 1
  51   26   48 1
  52   26   49 1
  53   27   50 1
  54   27   51 1
  55   27   52 1
  56   28   53 1
  57   28   54 1
  58   28   55 1

#	End of record

