#	Name: ASD02448090
#	Creating user name:	WinNT
#	Creation time:	15. 06. 2019 20:21

#	Modifying user name:	WinNT
#	Modification time:	15. 06. 2019 20:21

#	Program:	/corina/corina34_cracker 3.40 0067  02.08.2006

@<TRIPOS>MOLECULE
ASD02448090
  71   76    0    0    0
SMALL
NO_CHARGES


@<TRIPOS>ATOM
   1 C1             0.4014     1.4556    -0.3737 C.ar    
   2 C2             0.3006     0.0879    -0.2418 C.ar    
   3 C3             1.4522    -0.7028    -0.2806 C.ar    
   4 C4             2.7024    -0.1025    -0.4530 C.ar    
   5 C5             2.7954     1.2657    -0.5842 C.ar    
   6 C6             1.6472     2.0494    -0.5451 C.ar    
   7 N7             1.7454     3.4353    -0.6783 N.am    
   8 C8             0.7200     4.3708    -1.1583 C.3     
   9 C9             1.2217     5.7788    -1.1491 C.2     
  10 N10            2.4819     5.9230    -0.7157 N.am    
  11 S11            3.0521     4.4095    -0.3219 S.o2    
  12 O12            0.5417     6.7174    -1.5062 O.2     
  13 O13            3.2321     4.3829     1.0874 O.2     
  14 O14            4.0722     4.0892    -1.2579 O.2     
  15 N15            0.4695    -2.9988    -0.7947 N.pl3   
  16 C16            1.3484    -2.1679    -0.1392 C.2     
  17 C17            0.7217    -4.2713    -0.3656 C.2     
  18 N18            1.7018    -4.2443     0.5089 N.2     
  19 C19            2.1172    -2.9792     0.6796 C.2     
  20 C20            3.2033    -2.5309     1.5818 C.ar    
  21 C21            4.4345    -3.1888     1.5772 C.ar    
  22 C22            3.0016    -1.4465     2.4348 C.ar    
  23 C23            4.0168    -1.0327     3.2729 C.ar    
  24 C24            5.2344    -1.6914     3.2680 C.ar    
  25 C25            5.4429    -2.7660     2.4200 C.ar    
  26 Cl26           6.5070    -1.1641     4.3245 Cl      
  27 Cl27           4.6968    -4.5362     0.5143 Cl      
  28 C28            0.0060    -5.4836    -0.8128 C.ar    
  29 C29            0.3584    -6.7335    -0.2975 C.ar    
  30 C30           -0.3096    -7.8626    -0.7147 C.ar    
  31 C31           -1.3377    -7.7592    -1.6519 C.ar    
  32 C32           -1.6904    -6.5116    -2.1671 C.ar    
  33 C33           -1.0276    -5.3805    -1.7471 C.ar    
  34 C34           -2.0558    -8.9762    -2.1012 C.ar    
  35 C35           -3.0836    -8.8765    -3.0376 C.ar    
  36 C36           -3.7481   -10.0126    -3.4524 C.ar    
  37 C37           -3.3960   -11.2487    -2.9408 C.ar    
  38 C38           -2.3768   -11.3537    -2.0113 C.ar    
  39 C39           -1.7018   -10.2251    -1.5931 C.ar    
  40 C40           -4.1258   -12.4856    -3.3975 C.3     
  41 C41           -3.9578   -12.6479    -4.9095 C.3     
  42 C42           -3.5481   -13.7106    -2.6857 C.3     
  43 C43           -5.6125   -12.3541    -3.0607 C.3     
  44 H44           -0.4885     2.0670    -0.3483 H       
  45 H45           -0.6672    -0.3725    -0.1083 H       
  46 H46            3.5945    -0.7105    -0.4831 H       
  47 H47            3.7613     1.7304    -0.7171 H       
  48 H48            0.4370     4.0993    -2.1753 H       
  49 H49           -0.1570     4.3001    -0.5148 H       
  50 H50            2.9712     6.7573    -0.6421 H       
  51 H51           -0.2054    -2.7310    -1.4378 H       
  52 H52            2.0526    -0.9310     2.4392 H       
  53 H53            3.8612    -0.1928     3.9338 H       
  54 H54            6.3946    -3.2765     2.4206 H       
  55 H55            1.1548    -6.8139     0.4276 H       
  56 H56           -0.0373    -8.8289    -0.3165 H       
  57 H57           -2.4865    -6.4327    -2.8927 H       
  58 H58           -1.3011    -4.4148    -2.1458 H       
  59 H59           -3.3596    -7.9119    -3.4374 H       
  60 H60           -4.5448    -9.9365    -4.1776 H       
  61 H61           -2.1064   -12.3213    -1.6151 H       
  62 H62           -0.9060   -10.3083    -0.8677 H       
  63 H63           -2.8986   -12.7416    -5.1494 H       
  64 H64           -4.4856   -13.5425    -5.2398 H       
  65 H65           -4.3693   -11.7752    -5.4166 H       
  66 H66           -3.6678   -13.5950    -1.6085 H       
  67 H67           -4.0760   -14.6052    -3.0160 H       
  68 H68           -2.4890   -13.8043    -2.9256 H       
  69 H69           -6.0240   -11.4814    -3.5678 H       
  70 H70           -6.1403   -13.2487    -3.3910 H       
  71 H71           -5.7322   -12.2385    -1.9835 H       
@<TRIPOS>BOND
   1    1    2 ar
   2    1    6 ar
   3    1   44 1
   4    2    3 ar
   5    2   45 1
   6    3    4 ar
   7    3   16 1
   8    4    5 ar
   9    4   46 1
  10    5    6 ar
  11    5   47 1
  12    6    7 1
  13    7    8 1
  14    7   11 am
  15    8    9 1
  16    8   48 1
  17    8   49 1
  18    9   10 am
  19    9   12 2
  20   10   11 am
  21   10   50 1
  22   11   13 2
  23   11   14 2
  24   15   16 1
  25   15   17 1
  26   15   51 1
  27   16   19 2
  28   17   18 2
  29   17   28 1
  30   18   19 1
  31   19   20 1
  32   20   21 ar
  33   20   22 ar
  34   21   27 1
  35   21   25 ar
  36   22   23 ar
  37   22   52 1
  38   23   24 ar
  39   23   53 1
  40   24   25 ar
  41   24   26 1
  42   25   54 1
  43   28   29 ar
  44   28   33 ar
  45   29   30 ar
  46   29   55 1
  47   30   31 ar
  48   30   56 1
  49   31   32 ar
  50   31   34 1
  51   32   33 ar
  52   32   57 1
  53   33   58 1
  54   34   35 ar
  55   34   39 ar
  56   35   36 ar
  57   35   59 1
  58   36   37 ar
  59   36   60 1
  60   37   38 ar
  61   37   40 1
  62   38   39 ar
  63   38   61 1
  64   39   62 1
  65   40   41 1
  66   40   42 1
  67   40   43 1
  68   41   63 1
  69   41   64 1
  70   41   65 1
  71   42   66 1
  72   42   67 1
  73   42   68 1
  74   43   69 1
  75   43   70 1
  76   43   71 1

#	End of record

