#	Name: ASD03090420
#	Creating user name:	WinNT
#	Creation time:	15. 06. 2019 20:28

#	Modifying user name:	WinNT
#	Modification time:	15. 06. 2019 20:28

#	Program:	/corina/corina34_cracker 3.40 0067  02.08.2006

@<TRIPOS>MOLECULE
ASD03090420
  46   49    0    0    0
SMALL
NO_CHARGES


@<TRIPOS>ATOM
   1 C1            -2.2018     1.4717     0.6087 C.2     
   2 C2            -2.1846    -0.0351     0.5975 C.3     
   3 O3            -3.1170     2.0639     1.1406 O.2     
   4 N4            -1.1974     2.1614     0.0324 N.am    
   5 C5            -0.1172     4.3269     0.0508 C.ar    
   6 C6            -1.2670     3.5582    -0.0558 C.ar    
   7 C7            -2.4919     4.1927    -0.2521 C.ar    
   8 C8            -2.5127     5.5737    -0.3335 C.ar    
   9 C9            -1.3207     6.2770    -0.2177 C.ar    
  10 N10           -0.1755     5.6421    -0.0317 N.ar    
  11 O11           -1.3311     7.6321    -0.2967 O.3     
  12 C12           -0.1643     8.2930    -0.0763 C.ar    
  13 C13            0.8255     8.2986    -1.0486 C.ar    
  14 C14            2.0107     8.9711    -0.8221 C.ar    
  15 C15            2.2110     9.6383     0.3723 C.ar    
  16 C16            1.2264     9.6339     1.3430 C.ar    
  17 C17            0.0369     8.9681     1.1191 C.ar    
  18 C18            3.5049    10.3712     0.6167 C.3     
  19 N19           -6.8861    -1.9847     3.0103 N.pl3   
  20 C20           -7.7049    -2.0419     1.9155 C.2     
  21 C21           -7.0410    -1.6264     0.8253 C.2     
  22 C22           -5.6863    -1.2742     1.2573 C.ar    
  23 C23           -4.5530    -0.7905     0.6005 C.ar    
  24 C24           -3.4074    -0.5567     1.3072 C.ar    
  25 C25           -3.3606    -0.7963     2.6739 C.ar    
  26 C26           -4.4667    -1.2739     3.3417 C.ar    
  27 C27           -5.6439    -1.5190     2.6419 C.ar    
  28 H28           -2.1831    -0.3908    -0.4328 H       
  29 H29           -1.2892    -0.3920     1.1064 H       
  30 H30           -0.4264     1.6909    -0.3212 H       
  31 H31            0.8357     3.8434     0.2076 H       
  32 H32           -3.4034     3.6200    -0.3391 H       
  33 H33           -3.4443     6.0984    -0.4856 H       
  34 H34            0.6697     7.7773    -1.9816 H       
  35 H35            2.7816     8.9755    -1.5785 H       
  36 H36            1.3856    10.1552     2.2754 H       
  37 H37           -0.7337     8.9690     1.8757 H       
  38 H38            3.4115    11.3996     0.2678 H       
  39 H39            3.7282    10.3683     1.6835 H       
  40 H40            4.3109     9.8757     0.0754 H       
  41 H41           -7.1438    -2.2314     3.9124 H       
  42 H42           -8.7329    -2.3728     1.9268 H       
  43 H43           -7.4315    -1.5636    -0.1796 H       
  44 H44           -4.5818    -0.6026    -0.4627 H       
  45 H45           -2.4477    -0.6067     3.2189 H       
  46 H46           -4.4202    -1.4575     4.4050 H       
@<TRIPOS>BOND
   1    1    2 1
   2    1    3 2
   3    1    4 am
   4    2   24 1
   5    2   28 1
   6    2   29 1
   7    4    6 1
   8    4   30 1
   9    5    6 ar
  10    5   10 ar
  11    5   31 1
  12    6    7 ar
  13    7    8 ar
  14    7   32 1
  15    8    9 ar
  16    8   33 1
  17    9   10 ar
  18    9   11 1
  19   11   12 1
  20   12   13 ar
  21   12   17 ar
  22   13   14 ar
  23   13   34 1
  24   14   15 ar
  25   14   35 1
  26   15   16 ar
  27   15   18 1
  28   16   17 ar
  29   16   36 1
  30   17   37 1
  31   18   38 1
  32   18   39 1
  33   18   40 1
  34   19   20 1
  35   19   27 1
  36   19   41 1
  37   20   21 2
  38   20   42 1
  39   21   22 1
  40   21   43 1
  41   22   23 ar
  42   22   27 ar
  43   23   24 ar
  44   23   44 1
  45   24   25 ar
  46   25   26 ar
  47   25   45 1
  48   26   27 ar
  49   26   46 1

#	End of record

