#	Name: ASD01882488
#	Creating user name:	WinNT
#	Creation time:	15. 06. 2019 19:44

#	Modifying user name:	WinNT
#	Modification time:	15. 06. 2019 19:44

#	Program:	/corina/corina34_cracker 3.40 0067  02.08.2006

@<TRIPOS>MOLECULE
ASD01882488
  55   59    0    0    0
SMALL
NO_CHARGES


@<TRIPOS>ATOM
   1 C1             0.0665     1.4549    -0.0002 C.2     
   2 C2             0.0561     0.0458    -0.0105 C.2     
   3 C3             1.2392    -0.6272    -0.0180 C.2     
   4 C4             2.4485     0.0889    -0.0153 C.2     
   5 C5             2.4426     1.4383    -0.0049 C.2     
   6 N6             1.2645     2.1261     0.0022 N.pl3   
   7 N7            -0.3551     3.5439     0.0131 N.2     
   8 N8            -0.8869     2.3722     0.0033 N.2     
   9 C9             0.9497     3.4497     0.0121 C.2     
  10 C10            1.2523    -2.1341    -0.0286 C.3     
  11 N11            1.3741    -2.6130    -1.4120 N.3     
  12 C12            1.6280    -4.0600    -1.4479 C.3     
  13 C13            1.6690    -4.5321    -2.9032 C.3     
  14 N14            2.7183    -3.7981    -3.6242 N.3     
  15 C15            2.4644    -2.3511    -3.5882 C.3     
  16 C16            2.4234    -1.8790    -2.1329 C.3     
  17 C17            2.8343    -4.2544    -4.9423 C.ar    
  18 C18            3.2765    -5.5513    -5.1963 C.ar    
  19 C19            3.3889    -5.9975    -6.5022 C.ar    
  20 C20            3.0632    -5.1568    -7.5512 C.ar    
  21 C21            2.6250    -3.8702    -7.3002 C.ar    
  22 C22            2.5041    -3.4190    -5.9989 C.ar    
  23 O23            3.5973    -6.3766    -4.1639 O.3     
  24 C24            4.0432    -7.6922    -4.4994 C.3     
  25 C25            1.9260     4.5977     0.0192 C.3     
  26 C26            2.2545     4.9966    -1.4209 C.3     
  27 C27            3.1424     6.2252    -1.6286 C.3     
  28 C28            3.7010     4.8248    -1.8890 C.3     
  29 Cl29          -1.4478    -0.8214    -0.0131 Cl      
  30 H30            3.3880    -0.4439    -0.0212 H       
  31 H31            3.3780     1.9780    -0.0026 H       
  32 H32            2.0987    -2.4942     0.5564 H       
  33 H33            0.3252    -2.5086     0.4053 H       
  34 H34            2.5838    -4.2735    -0.9693 H       
  35 H35            0.8311    -4.5823    -0.9185 H       
  36 H36            1.8860    -5.5998    -2.9332 H       
  37 H37            0.7042    -4.3433    -3.3741 H       
  38 H38            3.2613    -1.8288    -4.1177 H       
  39 H39            1.5087    -2.1376    -4.0669 H       
  40 H40            2.2065    -0.8113    -2.1029 H       
  41 H41            3.3882    -2.0678    -1.6621 H       
  42 H42            3.7313    -7.0022    -6.7018 H       
  43 H43            3.1518    -5.5065    -8.5692 H       
  44 H44            2.3725    -3.2171    -8.1225 H       
  45 H45            2.1572    -2.4147    -5.8054 H       
  46 H46            3.2620    -8.2096    -5.0562 H       
  47 H47            4.9425    -7.6258    -5.1117 H       
  48 H48            4.2652    -8.2445    -3.5863 H       
  49 H49            1.4840     5.4473     0.5397 H       
  50 H50            2.8400     4.2942     0.5297 H       
  51 H51            1.4645     4.8175    -2.1502 H       
  52 H52            2.9368     6.8541    -2.4947 H       
  53 H53            3.4925     6.7492    -0.7392 H       
  54 H54            4.4185     4.4276    -1.1711 H       
  55 H55            3.8628     4.5324    -2.9266 H       
@<TRIPOS>BOND
   1    1    2 1
   2    1    6 1
   3    1    8 2
   4    2    3 2
   5    2   29 1
   6    3    4 1
   7    3   10 1
   8    4    5 2
   9    4   30 1
  10    5    6 1
  11    5   31 1
  12    6    9 1
  13    7    8 1
  14    7    9 2
  15    9   25 1
  16   10   11 1
  17   10   32 1
  18   10   33 1
  19   11   12 1
  20   11   16 1
  21   12   13 1
  22   12   34 1
  23   12   35 1
  24   13   14 1
  25   13   36 1
  26   13   37 1
  27   14   15 1
  28   14   17 1
  29   15   16 1
  30   15   38 1
  31   15   39 1
  32   16   40 1
  33   16   41 1
  34   17   18 ar
  35   17   22 ar
  36   18   19 ar
  37   18   23 1
  38   19   20 ar
  39   19   42 1
  40   20   21 ar
  41   20   43 1
  42   21   22 ar
  43   21   44 1
  44   22   45 1
  45   23   24 1
  46   24   46 1
  47   24   47 1
  48   24   48 1
  49   25   26 1
  50   25   49 1
  51   25   50 1
  52   26   27 1
  53   26   28 1
  54   26   51 1
  55   27   28 1
  56   27   52 1
  57   27   53 1
  58   28   54 1
  59   28   55 1

#	End of record

