#	Name: ASD07030032
#	Creating user name:	WinNT
#	Creation time:	15. 06. 2019 21:08

#	Modifying user name:	WinNT
#	Modification time:	15. 06. 2019 21:08

#	Program:	/corina/corina34_cracker 3.40 0067  02.08.2006

@<TRIPOS>MOLECULE
ASD07030032
  21   22    0    0    0
SMALL
NO_CHARGES


@<TRIPOS>ATOM
   1 C1            -0.0187     1.5258     0.0104 C.3     
   2 C2             0.0021    -0.0041     0.0020 C.3     
   3 C3             1.3165     0.7789    -0.0063 C.3     
   4 N4            -0.4313     2.2053    -1.2248 N.3     
   5 C5            -0.3780    -0.7121     1.2769 C.ar    
   6 C6            -1.4563    -1.5770     1.2921 C.ar    
   7 C7            -1.8049    -2.2265     2.4615 C.ar    
   8 C8            -1.0750    -2.0114     3.6156 C.ar    
   9 C9             0.0038    -1.1472     3.6001 C.ar    
  10 C10            0.3551    -0.5011     2.4297 C.ar    
  11 H11           -0.3072     2.0201     0.9381 H       
  12 H12           -0.2904    -0.5063    -0.9201 H       
  13 H13            1.8888     0.7918    -0.9339 H       
  14 H14            1.9064     0.7818     0.9103 H       
  15 H15           -0.4095     3.2076    -1.1107 H       
  16 H16            0.1412     1.9176    -2.0043 H       
  17 H17           -2.0265    -1.7450     0.3904 H       
  18 H18           -2.6478    -2.9017     2.4735 H       
  19 H19           -1.3479    -2.5183     4.5294 H       
  20 H20            0.5738    -0.9789     4.5019 H       
  21 H21            1.2002     0.1713     2.4167 H       
@<TRIPOS>BOND
   1    1    2 1
   2    1    3 1
   3    1    4 1
   4    1   11 1
   5    2    3 1
   6    2    5 1
   7    2   12 1
   8    3   13 1
   9    3   14 1
  10    4   15 1
  11    4   16 1
  12    5    6 ar
  13    5   10 ar
  14    6    7 ar
  15    6   17 1
  16    7    8 ar
  17    7   18 1
  18    8    9 ar
  19    8   19 1
  20    9   10 ar
  21    9   20 1
  22   10   21 1

#	End of record

