#	Name: ASD01948179
#	Creating user name:	WinNT
#	Creation time:	15. 06. 2019 20:13

#	Modifying user name:	WinNT
#	Modification time:	15. 06. 2019 20:13

#	Program:	/corina/corina34_cracker 3.40 0067  02.08.2006

@<TRIPOS>MOLECULE
ASD01948179
  43   45    0    0    0
SMALL
NO_CHARGES


@<TRIPOS>ATOM
   1 C1             1.7993     1.4185    -1.0463 C.ar    
   2 C2             1.5975     0.0464    -1.1433 C.ar    
   3 C3             1.7704    -0.5931    -2.3636 C.ar    
   4 C4             2.1421     0.1351    -3.4771 C.ar    
   5 C5             2.3427     1.5000    -3.3779 C.ar    
   6 C6             2.1659     2.1418    -2.1650 C.ar    
   7 N7             1.2217    -0.6883    -0.0143 N.pl3   
   8 C8             3.6312    -2.2821    -0.4412 C.2     
   9 C9             2.3514    -2.8720    -0.2921 C.2     
  10 C10            1.1513    -2.0655    -0.0788 C.2     
  11 N11            4.6877    -3.1032    -0.6398 N.am    
  12 Cl12           1.5839     2.2231     0.4769 Cl      
  13 C13            2.2375    -4.2682    -0.3510 C.2     
  14 N14            1.0109    -4.8538    -0.2088 N.am    
  15 C15           -0.0983    -4.1215    -0.0123 C.2     
  16 C16           -0.0595    -2.7262     0.0572 C.2     
  17 C17            4.5106    -4.4441    -0.6919 C.2     
  18 N18            3.3405    -5.0037    -0.5463 N.2     
  19 O19            3.7748    -1.0731    -0.3969 O.2     
  20 C20            0.9029    -6.3135    -0.2724 C.3     
  21 O21           -1.1707    -4.6912     0.1085 O.2     
  22 I22            2.9077     2.5991    -5.0695 I       
  23 C23            6.0299    -2.5384    -0.7997 C.3     
  24 C24            6.7016    -2.4237     0.5702 C.3     
  25 C25            8.1034    -1.8338     0.4032 C.3     
  26 O26            8.7739    -1.8345     1.6651 O.3     
  27 O27            5.9232    -1.5710     1.4124 O.3     
  28 H28            1.6147    -1.6589    -2.4420 H       
  29 H29            2.2766    -0.3621    -4.4264 H       
  30 H30            2.3232     3.2077    -2.0906 H       
  31 H31            1.0104    -0.2301     0.8142 H       
  32 H32           -0.9687    -2.1654     0.2161 H       
  33 H33            5.3719    -5.0758    -0.8520 H       
  34 H34            1.0201    -6.7304     0.7278 H       
  35 H35           -0.0747    -6.5885    -0.6684 H       
  36 H36            1.6828    -6.7074    -0.9241 H       
  37 H37            6.6236    -3.1887    -1.4421 H       
  38 H38            5.9565    -1.5495    -1.2523 H       
  39 H39            6.7750    -3.4125     1.0228 H       
  40 H40            8.6683    -2.4355    -0.3088 H       
  41 H41            8.0256    -0.8113     0.0336 H       
  42 H42            9.6704    -1.4733     1.6343 H       
  43 H43            5.8159    -0.6727     1.0711 H       
@<TRIPOS>BOND
   1    1    2 ar
   2    1   12 1
   3    1    6 ar
   4    2    3 ar
   5    2    7 1
   6    3    4 ar
   7    3   28 1
   8    4    5 ar
   9    4   29 1
  10    5    6 ar
  11    5   22 1
  12    6   30 1
  13    7   10 1
  14    7   31 1
  15    8    9 1
  16    8   19 2
  17    8   11 am
  18    9   10 1
  19    9   13 2
  20   10   16 2
  21   11   17 1
  22   11   23 1
  23   13   14 1
  24   13   18 1
  25   14   15 am
  26   14   20 1
  27   15   16 1
  28   15   21 2
  29   16   32 1
  30   17   18 2
  31   17   33 1
  32   20   34 1
  33   20   35 1
  34   20   36 1
  35   23   24 1
  36   23   37 1
  37   23   38 1
  38   24   25 1
  39   24   27 1
  40   24   39 1
  41   25   26 1
  42   25   40 1
  43   25   41 1
  44   26   42 1
  45   27   43 1

#	End of record

