#	Name: ASD03430681
#	Creating user name:	WinNT
#	Creation time:	15. 06. 2019 20:41

#	Modifying user name:	WinNT
#	Modification time:	15. 06. 2019 20:41

#	Program:	/corina/corina34_cracker 3.40 0067  02.08.2006

@<TRIPOS>MOLECULE
ASD03430681
  52   57    0    0    0
SMALL
NO_CHARGES


@<TRIPOS>ATOM
   1 C1             2.6659     0.3898    -0.0058 C.ar    
   2 C2             2.0973    -0.8729    -0.0432 C.ar    
   3 C3             2.8872    -1.9803    -0.2613 C.ar    
   4 C4             4.2620    -1.8464    -0.4348 C.ar    
   5 C5             4.8245    -0.5741    -0.4008 C.ar    
   6 C6             4.0305     0.5339    -0.1880 C.ar    
   7 O7             4.8585    -3.0601    -0.6074 O.3     
   8 C8             2.5807    -3.4489    -0.3818 C.3     
   9 C9             3.8638    -4.0277    -0.9943 C.3     
  10 C10            0.9900    -4.6325     0.7971 C.ar    
  11 C11            2.2593    -4.0770     0.9417 C.ar    
  12 C12            1.3822    -3.7104    -1.2483 C.2     
  13 N13            0.5056    -4.4013    -0.4926 N.am    
  14 O14            1.2323    -3.3668    -2.4018 O.2     
  15 C15            2.9367    -4.1802     2.1356 C.ar    
  16 C16            2.3589    -4.8404     3.2059 C.ar    
  17 C17            1.0998    -5.3958     3.0734 C.ar    
  18 C18            0.4166    -5.2953     1.8789 C.ar    
  19 C19           -0.8029    -4.8569    -0.9685 C.3     
  20 F20            1.8908     1.4767     0.2020 F       
  21 C21           -1.8896    -4.1915    -0.1638 C.ar    
  22 C22           -3.0324    -4.8946     0.1686 C.ar    
  23 C23           -4.0292    -4.2842     0.9067 C.ar    
  24 C24           -3.8830    -2.9710     1.3127 C.ar    
  25 C25           -2.7398    -2.2682     0.9810 C.ar    
  26 C26           -1.7410    -2.8799     0.2466 C.ar    
  27 C27           -0.9621    -4.4958    -2.4229 C.ar    
  28 C28           -0.9213    -5.4838    -3.3889 C.ar    
  29 C29           -1.0673    -5.1526    -4.7230 C.ar    
  30 C30           -1.2546    -3.8333    -5.0911 C.ar    
  31 C31           -1.2962    -2.8454    -4.1251 C.ar    
  32 C32           -1.1546    -3.1772    -2.7906 C.ar    
  33 H33            1.0331    -0.9893     0.0992 H       
  34 H34            5.8884    -0.4534    -0.5415 H       
  35 H35            4.4755     1.5177    -0.1634 H       
  36 H36            3.7824    -4.0862    -2.0797 H       
  37 H37            4.0889    -5.0056    -0.5687 H       
  38 H38            3.9203    -3.7458     2.2370 H       
  39 H39            2.8906    -4.9218     4.1424 H       
  40 H40            0.6490    -5.9110     3.9087 H       
  41 H41           -0.5666    -5.7319     1.7829 H       
  42 H42           -0.8754    -5.9383    -0.8526 H       
  43 H43           -3.1467    -5.9206    -0.1486 H       
  44 H44           -4.9224    -4.8333     1.1658 H       
  45 H45           -4.6621    -2.4939     1.8887 H       
  46 H46           -2.6257    -1.2420     1.2979 H       
  47 H47           -0.8462    -2.3320    -0.0093 H       
  48 H48           -0.7751    -6.5145    -3.1012 H       
  49 H49           -1.0348    -5.9244    -5.4777 H       
  50 H50           -1.3679    -3.5745    -6.1335 H       
  51 H51           -1.4422    -1.8147    -4.4127 H       
  52 H52           -1.1909    -2.4058    -2.0356 H       
@<TRIPOS>BOND
   1    1    2 ar
   2    1    6 ar
   3    1   20 1
   4    2    3 ar
   5    2   33 1
   6    3    4 ar
   7    3    8 1
   8    4    5 ar
   9    4    7 1
  10    5    6 ar
  11    5   34 1
  12    6   35 1
  13    7    9 1
  14    8    9 1
  15    8   11 1
  16    8   12 1
  17    9   36 1
  18    9   37 1
  19   10   11 ar
  20   10   13 1
  21   10   18 ar
  22   11   15 ar
  23   12   13 am
  24   12   14 2
  25   13   19 1
  26   15   16 ar
  27   15   38 1
  28   16   17 ar
  29   16   39 1
  30   17   18 ar
  31   17   40 1
  32   18   41 1
  33   19   21 1
  34   19   27 1
  35   19   42 1
  36   21   22 ar
  37   21   26 ar
  38   22   23 ar
  39   22   43 1
  40   23   24 ar
  41   23   44 1
  42   24   25 ar
  43   24   45 1
  44   25   26 ar
  45   25   46 1
  46   26   47 1
  47   27   28 ar
  48   27   32 ar
  49   28   29 ar
  50   28   48 1
  51   29   30 ar
  52   29   49 1
  53   30   31 ar
  54   30   50 1
  55   31   32 ar
  56   31   51 1
  57   32   52 1

#	End of record

