#	Name: ASD06350019
#	Creating user name:	WinNT
#	Creation time:	15. 06. 2019 21:06

#	Modifying user name:	WinNT
#	Modification time:	15. 06. 2019 21:06

#	Program:	/corina/corina34_cracker 3.40 0067  02.08.2006

@<TRIPOS>MOLECULE
ASD06350019
  58   63    0    0    0
SMALL
NO_CHARGES


@<TRIPOS>ATOM
   1 F1             1.5383     1.5134    -0.3529 F       
   2 C2             1.2963     2.8320    -0.1856 C.ar    
   3 C3             0.7731     3.2927     1.0110 C.ar    
   4 C4             0.5251     4.6401     1.1840 C.ar    
   5 C5             0.8011     5.5334     0.1572 C.ar    
   6 C6             1.3262     5.0694    -1.0418 C.ar    
   7 C7             1.5773     3.7218    -1.2090 C.ar    
   8 N8             0.5499     6.9004     0.3304 N.am    
   9 C9             1.5755     7.7343     0.6325 C.2     
  10 C10            1.3719     9.0651     0.8080 C.2     
  11 C11            0.0905     9.6002     0.6787 C.2     
  12 C12           -0.9685     8.7489     0.3678 C.2     
  13 C13           -0.7055     7.3665     0.1889 C.2     
  14 O14           -1.6145     6.6016    -0.0839 O.2     
  15 C15           -2.3339     9.2754     0.2232 C.2     
  16 O16           -2.5706    10.4365     0.4990 O.2     
  17 N17           -3.3232     8.4718    -0.2149 N.am    
  18 C18           -4.6446     8.9343    -0.2331 C.ar    
  19 C19           -5.6904     8.0585     0.0257 C.ar    
  20 C20           -6.9943     8.5145     0.0077 C.ar    
  21 C21           -7.2599     9.8469    -0.2682 C.ar    
  22 C22           -6.2143    10.7249    -0.5275 C.ar    
  23 C23           -4.9091    10.2705    -0.5045 C.ar    
  24 F24           -6.4732    12.0232    -0.7972 F       
  25 O25           -8.5440    10.2949    -0.2856 O.3     
  26 C26           -9.0604    10.7004    -1.4712 C.ar    
  27 N27           -8.3680    10.5470    -2.5963 N.ar    
  28 C28           -8.8623    10.9384    -3.7534 C.ar    
  29 N29          -10.0527    11.4944    -3.8491 N.ar    
  30 C30          -10.8071    11.6824    -2.7692 C.ar    
  31 C31          -10.3239    11.2773    -1.5294 C.ar    
  32 O32          -12.0295    12.2548    -2.8764 O.3     
  33 N33          -12.3860    12.6079    -4.2005 N.pl3   
  34 N34          -11.6620    12.4290    -5.2509 N.2     
  35 N35          -12.2516    12.8509    -6.3141 N.2     
  36 C36          -13.4564    13.3526    -5.9828 C.ar    
  37 C37          -13.5623    13.1933    -4.5864 C.ar    
  38 C38          -14.7108    13.6209    -3.9298 C.ar    
  39 C39          -15.7269    14.1918    -4.6434 C.ar    
  40 C40          -15.6259    14.3505    -6.0204 C.ar    
  41 C41          -14.5114    13.9357    -6.6905 C.ar    
  42 H42            0.5585     2.5977     1.8094 H       
  43 H43            0.1164     4.9989     2.1171 H       
  44 H44            1.5412     5.7625    -1.8417 H       
  45 H45            1.9859     3.3607    -2.1411 H       
  46 H46            2.5726     7.3324     0.7358 H       
  47 H47            2.2037     9.7105     1.0485 H       
  48 H48           -0.0787    10.6578     0.8177 H       
  49 H49           -3.1197     7.5729    -0.5175 H       
  50 H50           -5.4845     7.0204     0.2407 H       
  51 H51           -7.8074     7.8326     0.2085 H       
  52 H52           -4.0960    10.9522    -0.7059 H       
  53 H53           -8.2746    10.7997    -4.6488 H       
  54 H54          -10.9114    11.4157    -0.6339 H       
  55 H55          -14.7998    13.5020    -2.8600 H       
  56 H56          -16.6184    14.5230    -4.1317 H       
  57 H57          -16.4397    14.8040    -6.5668 H       
  58 H58          -14.4422    14.0637    -7.7606 H       
@<TRIPOS>BOND
   1    1    2 1
   2    2    3 ar
   3    2    7 ar
   4    3    4 ar
   5    3   42 1
   6    4    5 ar
   7    4   43 1
   8    5    6 ar
   9    5    8 1
  10    6    7 ar
  11    6   44 1
  12    7   45 1
  13    8    9 1
  14    8   13 am
  15    9   10 2
  16    9   46 1
  17   10   11 1
  18   10   47 1
  19   11   12 2
  20   11   48 1
  21   12   13 1
  22   12   15 1
  23   13   14 2
  24   15   16 2
  25   15   17 am
  26   17   18 1
  27   17   49 1
  28   18   19 ar
  29   18   23 ar
  30   19   20 ar
  31   19   50 1
  32   20   21 ar
  33   20   51 1
  34   21   22 ar
  35   21   25 1
  36   22   23 ar
  37   22   24 1
  38   23   52 1
  39   25   26 1
  40   26   27 ar
  41   26   31 ar
  42   27   28 ar
  43   28   29 ar
  44   28   53 1
  45   29   30 ar
  46   30   31 ar
  47   30   32 1
  48   31   54 1
  49   32   33 1
  50   33   34 1
  51   33   37 1
  52   34   35 2
  53   35   36 1
  54   36   37 ar
  55   36   41 ar
  56   37   38 ar
  57   38   39 ar
  58   38   55 1
  59   39   40 ar
  60   39   56 1
  61   40   41 ar
  62   40   57 1
  63   41   58 1

#	End of record

