#	Name: ASD01890140
#	Creating user name:	WinNT
#	Creation time:	15. 06. 2019 19:50

#	Modifying user name:	WinNT
#	Modification time:	15. 06. 2019 19:50

#	Program:	/corina/corina34_cracker 3.40 0067  02.08.2006

@<TRIPOS>MOLECULE
ASD01890140
  28   29    0    0    0
SMALL
NO_CHARGES


@<TRIPOS>ATOM
   1 C1            -0.0178     1.4578     0.0101 C.2     
   2 C2             0.0021    -0.0041     0.0020 C.2     
   3 C3             1.1810    -0.6636    -0.0128 C.2     
   4 O4             1.0282     2.0808     0.0034 O.2     
   5 C5            -1.3076     2.1794     0.0201 C.ar    
   6 C6            -1.3295     3.5760     0.0278 C.ar    
   7 C7            -2.5351     4.2437     0.0372 C.ar    
   8 C8            -3.7251     3.5316     0.0395 C.ar    
   9 C9            -3.7092     2.1450     0.0323 C.ar    
  10 C10           -2.5092     1.4671     0.0162 C.ar    
  11 F11           -4.9041     4.1911     0.0491 F       
  12 C12            1.2010    -2.1340    -0.0209 C.ar    
  13 C13            2.4202    -2.8205    -0.0362 C.ar    
  14 C14            2.4310    -4.1986    -0.0432 C.ar    
  15 C15            1.2386    -4.9043    -0.0351 C.ar    
  16 C16            0.0274    -4.2313    -0.0200 C.ar    
  17 C17            0.0009    -2.8535    -0.0074 C.ar    
  18 Cl18           1.2621    -6.6401    -0.0447 Cl      
  19 H19           -0.9258    -0.5567     0.0079 H       
  20 H20            2.1089    -0.1109    -0.0187 H       
  21 H21           -0.4034     4.1316     0.0267 H       
  22 H22           -2.5532     5.3236     0.0431 H       
  23 H23           -4.6388     1.5952     0.0345 H       
  24 H24           -2.4980     0.3872     0.0054 H       
  25 H25            3.3504    -2.2718    -0.0429 H       
  26 H26            3.3713    -4.7298    -0.0554 H       
  27 H27           -0.8981    -4.7879    -0.0137 H       
  28 H28           -0.9438    -2.3303     0.0086 H       
@<TRIPOS>BOND
   1    1    2 1
   2    1    4 2
   3    1    5 1
   4    2    3 2
   5    2   19 1
   6    3   12 1
   7    3   20 1
   8    5    6 ar
   9    5   10 ar
  10    6    7 ar
  11    6   21 1
  12    7    8 ar
  13    7   22 1
  14    8    9 ar
  15    8   11 1
  16    9   10 ar
  17    9   23 1
  18   10   24 1
  19   12   13 ar
  20   12   17 ar
  21   13   14 ar
  22   13   25 1
  23   14   15 ar
  24   14   26 1
  25   15   16 ar
  26   15   18 1
  27   16   17 ar
  28   16   27 1
  29   17   28 1

#	End of record

