#	Name: ASD01881947
#	Creating user name:	WinNT
#	Creation time:	15. 06. 2019 19:43

#	Modifying user name:	WinNT
#	Modification time:	15. 06. 2019 19:43

#	Program:	/corina/corina34_cracker 3.40 0067  02.08.2006

@<TRIPOS>MOLECULE
ASD01881947
  55   58    0    0    0
SMALL
NO_CHARGES


@<TRIPOS>ATOM
   1 N1            -0.0128     1.4747    -0.0143 N.am    
   2 C2             0.0024     0.0055    -0.0140 C.3     
   3 C3             0.8629    -0.4790    -1.1851 C.3     
   4 C4             2.2488     0.1639    -1.0948 C.3     
   5 C5             2.1144     1.6854    -1.1911 C.3     
   6 C6             1.2681     2.1944    -0.0200 C.3     
   7 C7            -1.1796     2.1493    -0.0151 C.2     
   8 O8            -2.2323     1.5425    -0.0154 O.2     
   9 O9            -1.1787     3.4957    -0.0154 O.3     
  10 O10            0.9920    -1.9009    -1.1259 O.3     
  11 N11           -2.8682    -5.0868    -3.3514 N.pl3   
  12 N12           -2.2034    -6.3041    -3.1423 N.2     
  13 N13           -1.0766    -6.0824    -2.5627 N.2     
  14 C14           -0.9107    -4.7617    -2.3504 C.ar    
  15 C15           -2.0481    -4.1027    -2.8484 C.ar    
  16 C16            0.1166    -4.0075    -1.7668 C.ar    
  17 C17           -0.0032    -2.6352    -1.6912 C.ar    
  18 C18           -1.1362    -1.9965    -2.1894 C.ar    
  19 C19           -2.1462    -2.7187    -2.7598 C.ar    
  20 C20           -4.1753    -4.8993    -3.9859 C.3     
  21 C21           -5.2728    -4.9636    -2.9218 C.3     
  22 C22           -6.7072    -4.6729    -3.3678 C.3     
  23 C23           -6.2885    -6.1034    -3.0225 C.3     
  24 Br24           1.6584    -4.8662    -1.0875 Br      
  25 C25           -2.4720     4.1558    -0.0162 C.3     
  26 C26           -3.2547     3.7455     1.2328 C.3     
  27 C27           -2.2705     5.6724    -0.0164 C.3     
  28 C28           -3.2535     3.7449    -1.2657 C.3     
  29 H29            0.4249    -0.3553     0.9238 H       
  30 H30           -1.0144    -0.3705    -0.1276 H       
  31 H31            0.3907    -0.1949    -2.1255 H       
  32 H32            2.7104    -0.1004    -0.1434 H       
  33 H33            2.8711    -0.1982    -1.9131 H       
  34 H34            3.1037     2.1413    -1.1502 H       
  35 H35            1.6304     1.9491    -2.1315 H       
  36 H36            1.0864     3.2627    -0.1377 H       
  37 H37            1.7939     2.0121     0.9172 H       
  38 H38           -1.2174    -0.9215    -2.1236 H       
  39 H39           -3.0209    -2.2140    -3.1429 H       
  40 H40           -4.2038    -3.9276    -4.4790 H       
  41 H41           -4.3375    -5.6857    -4.7231 H       
  42 H42           -4.9799    -4.6367    -1.9241 H       
  43 H43           -7.3581    -4.1551    -2.6634 H       
  44 H44           -6.8690    -4.4359    -4.4193 H       
  45 H45           -6.1748    -6.8075    -3.8468 H       
  46 H46           -6.6639    -6.5267    -2.0908 H       
  47 H47           -2.6979     4.0382     2.1230 H       
  48 H48           -4.2256     4.2410     1.2322 H       
  49 H49           -3.3982     2.6650     1.2330 H       
  50 H50           -1.7128     5.9647    -0.9062 H       
  51 H51           -3.2414     6.1679    -0.0170 H       
  52 H52           -1.7137     5.9652     0.8738 H       
  53 H53           -3.3970     2.6644    -1.2655 H       
  54 H54           -4.2243     4.2404    -1.2663 H       
  55 H55           -2.6958     4.0372    -2.1555 H       
@<TRIPOS>BOND
   1    1    2 1
   2    1    6 1
   3    1    7 am
   4    2    3 1
   5    2   29 1
   6    2   30 1
   7    3    4 1
   8    3   10 1
   9    3   31 1
  10    4    5 1
  11    4   32 1
  12    4   33 1
  13    5    6 1
  14    5   34 1
  15    5   35 1
  16    6   36 1
  17    6   37 1
  18    7    8 2
  19    7    9 1
  20    9   25 1
  21   10   17 1
  22   11   12 1
  23   11   15 1
  24   11   20 1
  25   12   13 2
  26   13   14 1
  27   14   15 ar
  28   14   16 ar
  29   15   19 ar
  30   16   17 ar
  31   16   24 1
  32   17   18 ar
  33   18   19 ar
  34   18   38 1
  35   19   39 1
  36   20   21 1
  37   20   40 1
  38   20   41 1
  39   21   22 1
  40   21   23 1
  41   21   42 1
  42   22   23 1
  43   22   43 1
  44   22   44 1
  45   23   45 1
  46   23   46 1
  47   25   26 1
  48   25   28 1
  49   25   27 1
  50   26   47 1
  51   26   48 1
  52   26   49 1
  53   27   50 1
  54   27   51 1
  55   27   52 1
  56   28   53 1
  57   28   54 1
  58   28   55 1

#	End of record

