#	Name: ASD03331008
#	Creating user name:	WinNT
#	Creation time:	15. 06. 2019 20:38

#	Modifying user name:	WinNT
#	Modification time:	15. 06. 2019 20:38

#	Program:	/corina/corina34_cracker 3.40 0067  02.08.2006

@<TRIPOS>MOLECULE
ASD03331008
  67   70    0    0    0
SMALL
NO_CHARGES


@<TRIPOS>ATOM
   1 N1            -0.8730     1.7436    -0.4478 N.pl3   
   2 C2            -0.6918     0.4230    -0.1798 C.2     
   3 C3             0.6241    -0.2340     0.1458 C.3     
   4 N4             1.3255     0.5681     1.1603 N.3     
   5 C5             2.1608     1.5971     0.5382 C.3     
   6 C6             1.5214     2.1163    -0.7464 C.3     
   7 C7             0.1737     2.7692    -0.4276 C.3     
   8 C8            -2.1970     1.9269    -0.7224 C.2     
   9 N9            -2.8116     0.7726    -0.6111 N.2     
  10 C10           -1.9108    -0.1764    -0.2744 C.2     
  11 C11           -2.1964    -1.6045    -0.0500 C.2     
  12 O12           -1.2958    -2.3649     0.2501 O.2     
  13 N13           -3.4554    -2.0681    -0.1774 N.am    
  14 C14            2.1205    -0.2879     2.0509 C.3     
  15 C15           -2.8334     3.2120    -1.0843 C.ar    
  16 C16           -2.5620     4.3619    -0.3423 C.ar    
  17 C17           -3.1591     5.5584    -0.6851 C.ar    
  18 C18           -4.0267     5.6196    -1.7630 C.ar    
  19 C19           -4.3010     4.4844    -2.5029 C.ar    
  20 C20           -3.7046     3.2811    -2.1744 C.ar    
  21 C21           -4.9818    -3.8770    -0.7132 C.2     
  22 C22           -3.7393    -3.4880     0.0456 C.3     
  23 C23           -3.9555    -3.7363     1.5398 C.3     
  24 C24           -4.3856    -5.1882     1.7585 C.3     
  25 C25           -2.6513    -3.4715     2.2947 C.3     
  26 C26           -5.0457    -2.7974     2.0603 C.3     
  27 N27           -5.1167    -5.1314    -1.1874 N.am    
  28 C28           -6.1698    -5.8976    -1.8708 C.3     
  29 C29           -5.5642    -7.1697    -1.2615 C.3     
  30 C30           -4.2734    -6.3343    -1.2552 C.3     
  31 F31           -6.0540    -7.4860     0.0102 F       
  32 F32           -5.5319    -8.2638    -2.1328 F       
  33 O33           -5.8604    -3.0614    -0.8971 O.2     
  34 Cl34          -2.8222     6.9898     0.2374 Cl      
  35 C35           -4.6750     6.9294    -2.1307 C.3     
  36 F36           -3.9681     2.1736    -2.9019 F       
  37 H37            0.4446    -1.2365     0.5341 H       
  38 H38            1.2337    -0.2951    -0.7557 H       
  39 H39            2.2874     2.4254     1.2354 H       
  40 H40            3.1378     1.1732     0.3060 H       
  41 H41            2.1804     2.8519    -1.2076 H       
  42 H42            1.3677     1.2861    -1.4359 H       
  43 H43           -0.0480     3.5311    -1.1750 H       
  44 H44            0.2156     3.2277     0.5604 H       
  45 H45           -4.1737    -1.4617    -0.4168 H       
  46 H46            2.8119    -0.8864     1.4577 H       
  47 H47            2.6832     0.3348     2.7463 H       
  48 H48            1.4561    -0.9473     2.6094 H       
  49 H49           -1.8862     4.3159     0.4990 H       
  50 H50           -4.9790     4.5386    -3.3418 H       
  51 H51           -2.8978    -4.0860    -0.3041 H       
  52 H52           -3.5967    -5.8567     1.4137 H       
  53 H53           -4.5672    -5.3574     2.8198 H       
  54 H54           -5.2994    -5.3848     1.1977 H       
  55 H55           -2.3449    -2.4371     2.1389 H       
  56 H56           -2.8053    -3.6484     3.3591 H       
  57 H57           -1.8746    -4.1403     1.9238 H       
  58 H58           -5.9748    -2.9861     1.5225 H       
  59 H59           -5.1997    -2.9743     3.1247 H       
  60 H60           -4.7393    -1.7631     1.9044 H       
  61 H61           -7.1731    -5.6769    -1.5063 H       
  62 H62           -6.0979    -5.8602    -2.9577 H       
  63 H63           -3.7015    -6.4120    -2.1799 H       
  64 H64           -3.6610    -6.4857    -0.3663 H       
  65 H65           -4.0426     7.4608    -2.8419 H       
  66 H66           -5.6487     6.7388    -2.5820 H       
  67 H67           -4.8026     7.5359    -1.2341 H       
@<TRIPOS>BOND
   1    1    2 1
   2    1    7 1
   3    1    8 1
   4    2    3 1
   5    2   10 2
   6    3    4 1
   7    3   37 1
   8    3   38 1
   9    4    5 1
  10    4   14 1
  11    5    6 1
  12    5   39 1
  13    5   40 1
  14    6    7 1
  15    6   41 1
  16    6   42 1
  17    7   43 1
  18    7   44 1
  19    8    9 2
  20    8   15 1
  21    9   10 1
  22   10   11 1
  23   11   12 2
  24   11   13 am
  25   13   22 1
  26   13   45 1
  27   14   46 1
  28   14   47 1
  29   14   48 1
  30   15   16 ar
  31   15   20 ar
  32   16   17 ar
  33   16   49 1
  34   17   18 ar
  35   17   34 1
  36   18   19 ar
  37   18   35 1
  38   19   20 ar
  39   19   50 1
  40   20   36 1
  41   21   27 am
  42   21   33 2
  43   21   22 1
  44   22   23 1
  45   22   51 1
  46   23   24 1
  47   23   25 1
  48   23   26 1
  49   24   52 1
  50   24   53 1
  51   24   54 1
  52   25   55 1
  53   25   56 1
  54   25   57 1
  55   26   58 1
  56   26   59 1
  57   26   60 1
  58   27   28 1
  59   27   30 1
  60   28   29 1
  61   28   61 1
  62   28   62 1
  63   29   30 1
  64   29   31 1
  65   29   32 1
  66   30   63 1
  67   30   64 1
  68   35   65 1
  69   35   66 1
  70   35   67 1

#	End of record

