#	Name: ASD07930782
#	Creating user name:	WinNT
#	Creation time:	15. 06. 2019 21:13

#	Modifying user name:	WinNT
#	Modification time:	15. 06. 2019 21:13

#	Program:	/corina/corina34_cracker 3.40 0067  02.08.2006

@<TRIPOS>MOLECULE
ASD07930782
  46   48    0    0    0
SMALL
NO_CHARGES


@<TRIPOS>ATOM
   1 C1             0.0094     1.4550    -0.0071 C.3     
   2 N2             0.8296    -0.4390    -2.1637 N.2     
   3 N3            -0.8676    -1.7903    -1.2949 N.pl3   
   4 C4            -0.9018    -2.8257    -0.2568 C.3     
   5 C5            -1.2148    -2.1745     1.0974 C.3     
   6 S6             0.0300    -0.8839     1.4119 S.o2    
   7 N7             0.0190    -0.0099    -0.0068 N.am    
   8 C8             0.0189    -0.7383    -1.1879 C.2     
   9 C9             0.4581    -3.5234    -0.1861 C.3     
  10 C10           -1.9699    -3.8358    -0.5884 C.ar    
  11 C11           -2.3070    -4.1027    -1.9030 C.ar    
  12 C12           -3.2980    -5.0421    -2.1699 C.ar    
  13 N13           -3.9116    -5.6737    -1.1812 N.ar    
  14 C14           -3.6106    -5.4392     0.0820 C.ar    
  15 C15           -2.6338    -4.5238     0.4189 C.ar    
  16 O16           -0.4291     0.0301     2.3984 O.2     
  17 O17            1.3338    -1.4455     1.4757 O.2     
  18 N18           -3.6474    -5.3200    -3.4874 N.pl3   
  19 C19           -4.5577    -6.3375    -3.7671 C.ar    
  20 C20           -4.9899    -6.5383    -5.0786 C.ar    
  21 C21           -5.8963    -7.5555    -5.3399 C.ar    
  22 C22           -6.3384    -8.3360    -4.2803 C.ar    
  23 C23           -5.8676    -8.0798    -3.0082 C.ar    
  24 N24           -5.0011    -7.1088    -2.7878 N.ar    
  25 O25           -4.5298    -5.7483    -6.0854 O.3     
  26 C26           -5.0217    -6.0196    -7.3994 C.3     
  27 H27            1.0346     1.8251    -0.0110 H       
  28 H28           -0.5101     1.8148    -0.8953 H       
  29 H29           -0.5035     1.8152     0.8847 H       
  30 H30            1.4466     0.3038    -2.0711 H       
  31 H31           -1.4644    -1.8470    -2.0575 H       
  32 H32           -2.2085    -1.7275     1.0692 H       
  33 H33           -1.1718    -2.9263     1.8854 H       
  34 H34            1.2294    -2.7921     0.0558 H       
  35 H35            0.4321    -4.2927     0.5856 H       
  36 H36            0.6816    -3.9822    -1.1492 H       
  37 H37           -1.8082    -3.5886    -2.7112 H       
  38 H38           -4.1322    -5.9735     0.8623 H       
  39 H39           -2.3939    -4.3386     1.4555 H       
  40 H40           -3.2575    -4.8056    -4.2115 H       
  41 H41           -6.2501    -7.7358    -6.3443 H       
  42 H42           -7.0443    -9.1357    -4.4496 H       
  43 H43           -6.2099    -8.6854    -2.1821 H       
  44 H44           -4.7581    -7.0386    -7.6828 H       
  45 H45           -6.1059    -5.9080    -7.4117 H       
  46 H46           -4.5763    -5.3192    -8.1059 H       
@<TRIPOS>BOND
   1    1    7 1
   2    1   27 1
   3    1   28 1
   4    1   29 1
   5    2    8 2
   6    2   30 1
   7    3    4 1
   8    3    8 1
   9    3   31 1
  10    4    5 1
  11    4    9 1
  12    4   10 1
  13    5    6 1
  14    5   32 1
  15    5   33 1
  16    6    7 am
  17    6   16 2
  18    6   17 2
  19    7    8 1
  20    9   34 1
  21    9   35 1
  22    9   36 1
  23   10   11 ar
  24   10   15 ar
  25   11   12 ar
  26   11   37 1
  27   12   13 ar
  28   12   18 1
  29   13   14 ar
  30   14   15 ar
  31   14   38 1
  32   15   39 1
  33   18   19 1
  34   18   40 1
  35   19   20 ar
  36   19   24 ar
  37   20   21 ar
  38   20   25 1
  39   21   22 ar
  40   21   41 1
  41   22   23 ar
  42   22   42 1
  43   23   24 ar
  44   23   43 1
  45   25   26 1
  46   26   44 1
  47   26   45 1
  48   26   46 1

#	End of record

