#	Name: ASD08150359
#	Creating user name:	WinNT
#	Creation time:	15. 06. 2019 21:15

#	Modifying user name:	WinNT
#	Modification time:	15. 06. 2019 21:15

#	Program:	/corina/corina34_cracker 3.40 0067  02.08.2006

@<TRIPOS>MOLECULE
ASD08150359
  84   90    0    0    0
SMALL
NO_CHARGES


@<TRIPOS>ATOM
   1 N1             0.5521     2.4449     0.0571 N.am    
   2 C2             1.3218     3.5469    -0.5401 C.3     
   3 C3             2.5945     2.9679    -1.1671 C.3     
   4 N4             2.2318     1.8889    -2.0957 N.3     
   5 C5             1.5814     0.7759    -1.3914 C.3     
   6 C6             0.2672     1.2651    -0.7736 C.3     
   7 C7             0.1240     2.5122     1.3333 C.2     
   8 O8             0.3728     3.4925     2.0067 O.2     
   9 O9            -0.5793     1.4931     1.8620 O.3     
  10 C10            3.3498     1.4453    -2.8098 C.ar    
  11 C11            3.8478     2.2035    -3.8619 C.ar    
  12 C12            4.9513     1.7657    -4.5662 C.ar    
  13 C13            5.5637     0.5675    -4.2231 C.ar    
  14 C14            5.0659    -0.1906    -3.1720 C.ar    
  15 C15            3.9655     0.2497    -2.4635 C.ar    
  16 C16            3.1830     3.5036    -4.2346 C.3     
  17 F17            3.7083     3.9653    -5.4463 F       
  18 F18            1.8055     3.3008    -4.3706 F       
  19 F19            3.4182     4.4515    -3.2330 F       
  20 N20            6.1605    -1.6912    -8.6346 N.ar    
  21 C21            7.3679    -1.5338    -8.1377 C.ar    
  22 C22            7.5672    -0.9324    -6.9079 C.ar    
  23 C23            6.4873    -0.4796    -6.1684 C.ar    
  24 C24            5.1949    -0.6547    -6.7125 C.ar    
  25 C25            4.0510    -0.2263    -6.0303 C.ar    
  26 C26            2.8051    -0.4192    -6.6018 C.ar    
  27 C27            2.6881    -1.0392    -7.8553 C.ar    
  28 C28            3.7883    -1.4616    -8.5309 C.ar    
  29 C29            5.0692    -1.2795    -7.9788 C.ar    
  30 C30            7.8994     0.3014    -4.4009 C.2     
  31 N31            6.6850     0.1229    -4.9388 N.am    
  32 C32            8.9492    -0.7462    -6.3273 C.3     
  33 N33            9.0335    -0.0915    -5.0099 N.am    
  34 N34            0.5257     0.5215    -3.8257 N.ar    
  35 C35            1.5854     0.1266    -4.4842 C.ar    
  36 C36            1.5873     0.0315    -5.8854 C.ar    
  37 C37            0.4420     0.3624    -6.5943 C.ar    
  38 C38           -0.6850     0.7842    -5.8673 C.ar    
  39 C39           -1.8806     1.1354    -6.5158 C.ar    
  40 C40           -2.9524     1.5390    -5.7792 C.ar    
  41 C41           -2.8786     1.6088    -4.3899 C.ar    
  42 C42           -1.7358     1.2759    -3.7291 C.ar    
  43 C43           -0.6078     0.8540    -4.4533 C.ar    
  44 O44            7.9802     0.8413    -3.3145 O.2     
  45 C45           10.3339     0.1303    -4.3728 C.3     
  46 C46           -1.0079     1.6341     3.2421 C.3     
  47 C47           -1.9063     2.8655     3.3739 C.3     
  48 C48           -1.7872     0.3868     3.6640 C.3     
  49 C49            0.2180     1.7983     4.1426 C.3     
  50 H50            0.7243     4.0360    -1.3095 H       
  51 H51            1.5895     4.2674     0.2328 H       
  52 H52            3.1222     3.7524    -1.7094 H       
  53 H53            3.2386     2.5712    -0.3823 H       
  54 H54            1.3744    -0.0293    -2.0964 H       
  55 H55            2.2396     0.4097    -0.6035 H       
  56 H56           -0.1624     0.4770    -0.1551 H       
  57 H57           -0.4316     1.5348    -1.5654 H       
  58 H58            5.3383     2.3550    -5.3843 H       
  59 H59            5.5421    -1.1226    -2.9056 H       
  60 H60            3.5810    -0.3380    -1.6430 H       
  61 H61            8.2213    -1.8811    -8.7012 H       
  62 H62            4.1393     0.2508    -5.0654 H       
  63 H63            1.7094    -1.1830    -8.2888 H       
  64 H64            3.6794    -1.9371    -9.4944 H       
  65 H65            9.4150    -1.7282    -6.2456 H       
  66 H66            9.5345    -0.1575    -7.0337 H       
  67 H67            2.4798    -0.1322    -3.9370 H       
  68 H68            0.4168     0.2984    -7.6721 H       
  69 H69           -1.9492     1.0859    -7.5925 H       
  70 H70           -3.8713     1.8089    -6.2785 H       
  71 H71           -3.7420     1.9326    -3.8277 H       
  72 H72           -1.6961     1.3361    -2.6515 H       
  73 H73           10.1883     0.6248    -3.4124 H       
  74 H74           10.8301    -0.8276    -4.2166 H       
  75 H75           10.9508     0.7586    -5.0152 H       
  76 H76           -2.7796     2.7485     2.7323 H       
  77 H77           -2.2280     2.9714     4.4099 H       
  78 H78           -1.3511     3.7541     3.0733 H       
  79 H79           -1.1472    -0.4905     3.5701 H       
  80 H80           -2.1090     0.4926     4.7000 H       
  81 H81           -2.6606     0.2698     3.0224 H       
  82 H82            0.7732     2.6869     3.8421 H       
  83 H83           -0.1038     1.9042     5.1787 H       
  84 H84            0.8580     0.9210     4.0487 H       
@<TRIPOS>BOND
   1    1    2 1
   2    1    6 1
   3    1    7 am
   4    2    3 1
   5    2   50 1
   6    2   51 1
   7    3    4 1
   8    3   52 1
   9    3   53 1
  10    4    5 1
  11    4   10 1
  12    5    6 1
  13    5   54 1
  14    5   55 1
  15    6   56 1
  16    6   57 1
  17    7    8 2
  18    7    9 1
  19    9   46 1
  20   10   11 ar
  21   10   15 ar
  22   11   12 ar
  23   11   16 1
  24   12   13 ar
  25   12   58 1
  26   13   14 ar
  27   13   31 1
  28   14   15 ar
  29   14   59 1
  30   15   60 1
  31   16   17 1
  32   16   18 1
  33   16   19 1
  34   20   21 ar
  35   20   29 ar
  36   21   22 ar
  37   21   61 1
  38   22   23 ar
  39   22   32 1
  40   23   24 ar
  41   23   31 1
  42   24   25 ar
  43   24   29 ar
  44   25   26 ar
  45   25   62 1
  46   26   27 ar
  47   26   36 1
  48   27   28 ar
  49   27   63 1
  50   28   29 ar
  51   28   64 1
  52   30   31 am
  53   30   33 am
  54   30   44 2
  55   32   33 1
  56   32   65 1
  57   32   66 1
  58   33   45 1
  59   34   35 ar
  60   34   43 ar
  61   35   36 ar
  62   35   67 1
  63   36   37 ar
  64   37   38 ar
  65   37   68 1
  66   38   39 ar
  67   38   43 ar
  68   39   40 ar
  69   39   69 1
  70   40   41 ar
  71   40   70 1
  72   41   42 ar
  73   41   71 1
  74   42   43 ar
  75   42   72 1
  76   45   73 1
  77   45   74 1
  78   45   75 1
  79   46   47 1
  80   46   49 1
  81   46   48 1
  82   47   76 1
  83   47   77 1
  84   47   78 1
  85   48   79 1
  86   48   80 1
  87   48   81 1
  88   49   82 1
  89   49   83 1
  90   49   84 1

#	End of record

