#	Name: ASD01412025
#	Creating user name:	WinNT
#	Creation time:	15. 06. 2019 19:19

#	Modifying user name:	WinNT
#	Modification time:	15. 06. 2019 19:19

#	Program:	/corina/corina34_cracker 3.40 0067  02.08.2006

@<TRIPOS>MOLECULE
ASD01412025
  78   82    0    0    0
SMALL
NO_CHARGES


@<TRIPOS>ATOM
   1 C1            -1.1721     3.2494    -0.6275 C.ar    
   2 C2            -0.9746     1.9110    -1.0232 C.ar    
   3 C3            -2.0428     1.0035    -0.9799 C.ar    
   4 C4            -3.2692     1.4148    -0.5562 C.ar    
   5 C5            -3.4752     2.7446    -0.1606 C.ar    
   6 C6            -2.4240     3.6579    -0.1926 C.ar    
   7 N7             0.0345     3.9013    -0.7725 N.pl3   
   8 C8             0.9670     3.0075    -1.2441 C.2     
   9 C9             0.3836     1.7930    -1.4055 C.2     
  10 C10            1.0606     0.5417    -1.9024 C.3     
  11 C11            0.9733    -0.5458    -0.8297 C.3     
  12 C12            1.6607    -1.8161    -1.3343 C.3     
  13 C13            0.9660    -2.3000    -2.6088 C.3     
  14 C14            1.0533    -1.2125    -3.6815 C.3     
  15 C15            0.3660     0.0578    -3.1769 C.3     
  16 C16           -4.8104     3.1768     0.2961 C.2     
  17 O17           -4.9919     4.3289     0.6396 O.2     
  18 N18           -5.8285     2.2944     0.3323 N.am    
  19 C19           -7.1539     2.7234     0.7857 C.3     
  20 C20           -8.1055     1.5561     0.7314 C.2     
  21 C21           -7.0592     3.2379     2.2235 C.3     
  22 C22           -7.6665     3.8420    -0.1236 C.3     
  23 C23           -8.8165    -0.4860    -0.2512 C.ar    
  24 O24           -8.9755     1.4436     1.5689 O.2     
  25 C25           -9.1918    -1.0749     0.9526 C.ar    
  26 C26          -10.0116    -2.1801     0.9542 C.ar    
  27 C27          -10.4686    -2.7119    -0.2577 C.ar    
  28 C28          -10.0888    -2.1158    -1.4664 C.ar    
  29 C29           -9.2682    -1.0111    -1.4583 C.ar    
  30 C30          -11.3438    -3.8922    -0.2612 C.2     
  31 C31          -12.3913    -3.9589     0.5894 C.2     
  32 N32           -7.9898     0.6373    -0.2477 N.am    
  33 C33            0.2820     5.3140    -0.4736 C.3     
  34 C34            2.3833     3.3207    -1.5310 C.ar    
  35 C35            2.7363     4.4826    -2.2275 C.ar    
  36 C36            4.0698     4.7355    -2.4734 C.ar    
  37 N37            5.0049     3.9004    -2.0625 N.ar    
  38 C38            4.7158     2.7946    -1.4031 C.ar    
  39 C39            3.4089     2.4667    -1.1086 C.ar    
  40 C40          -12.7897    -2.8079     1.3151 C.2     
  41 O41          -12.2159    -1.7497     1.1399 O.2     
  42 O42          -13.8054    -2.8863     2.1999 O.3     
  43 H43           -1.8925    -0.0221    -1.2832 H       
  44 H44           -4.0892     0.7127    -0.5248 H       
  45 H45           -2.5849     4.6813     0.1128 H       
  46 H46            2.1073     0.7561    -2.1182 H       
  47 H47            1.4682    -0.2010     0.0782 H       
  48 H48           -0.0734    -0.7602    -0.6140 H       
  49 H49            2.7074    -1.6017    -1.5500 H       
  50 H50            1.5985    -2.5909    -0.5701 H       
  51 H51            1.4557    -3.2051    -2.9682 H       
  52 H52           -0.0807    -2.5144    -2.3930 H       
  53 H53            2.1000    -0.9981    -3.8972 H       
  54 H54            0.5584    -1.5573    -4.5894 H       
  55 H55           -0.6807    -0.1566    -2.9612 H       
  56 H56            0.4281     0.8326    -3.9411 H       
  57 H57           -5.6837     1.3752     0.0583 H       
  58 H58           -6.3709     4.0821     2.2627 H       
  59 H59           -8.0454     3.5571     2.5608 H       
  60 H60           -6.6940     2.4409     2.8713 H       
  61 H61           -7.7339     3.4755    -1.1479 H       
  62 H62           -8.6526     4.1612     0.2138 H       
  63 H63           -6.9782     4.6863    -0.0843 H       
  64 H64           -8.8389    -0.6640     1.8870 H       
  65 H65          -10.3018    -2.6369     1.8889 H       
  66 H66          -10.4386    -2.5228    -2.4036 H       
  67 H67           -8.9750    -0.5504    -2.3901 H       
  68 H68          -11.1496    -4.7064    -0.9437 H       
  69 H69          -12.9253    -4.8891     0.7165 H       
  70 H70           -7.3315     0.7571    -0.9500 H       
  71 H71            0.5938     5.4162     0.5659 H       
  72 H72            1.0682     5.6914    -1.1275 H       
  73 H73           -0.6317     5.8854    -0.6367 H       
  74 H74            1.9761     5.1703    -2.5675 H       
  75 H75            4.3522     5.6292    -3.0100 H       
  76 H76            5.5138     2.1395    -1.0861 H       
  77 H77            3.1796     1.5601    -0.5682 H       
  78 H78          -14.0041    -2.0514     2.6455 H       
@<TRIPOS>BOND
   1    1    2 ar
   2    1    7 1
   3    1    6 ar
   4    2    3 ar
   5    2    9 1
   6    3    4 ar
   7    3   43 1
   8    4    5 ar
   9    4   44 1
  10    5    6 ar
  11    5   16 1
  12    6   45 1
  13    7    8 1
  14    7   33 1
  15    8    9 2
  16    8   34 1
  17    9   10 1
  18   10   11 1
  19   10   15 1
  20   10   46 1
  21   11   12 1
  22   11   47 1
  23   11   48 1
  24   12   13 1
  25   12   49 1
  26   12   50 1
  27   13   14 1
  28   13   51 1
  29   13   52 1
  30   14   15 1
  31   14   53 1
  32   14   54 1
  33   15   55 1
  34   15   56 1
  35   16   17 2
  36   16   18 am
  37   18   19 1
  38   18   57 1
  39   19   20 1
  40   19   21 1
  41   19   22 1
  42   20   24 2
  43   20   32 am
  44   21   58 1
  45   21   59 1
  46   21   60 1
  47   22   61 1
  48   22   62 1
  49   22   63 1
  50   23   25 ar
  51   23   29 ar
  52   23   32 1
  53   25   26 ar
  54   25   64 1
  55   26   27 ar
  56   26   65 1
  57   27   28 ar
  58   27   30 1
  59   28   29 ar
  60   28   66 1
  61   29   67 1
  62   30   31 2
  63   30   68 1
  64   31   40 1
  65   31   69 1
  66   32   70 1
  67   33   71 1
  68   33   72 1
  69   33   73 1
  70   34   35 ar
  71   34   39 ar
  72   35   36 ar
  73   35   74 1
  74   36   37 ar
  75   36   75 1
  76   37   38 ar
  77   38   39 ar
  78   38   76 1
  79   39   77 1
  80   40   41 2
  81   40   42 1
  82   42   78 1

#	End of record

