#	Name: ASD01901601
#	Creating user name:	WinNT
#	Creation time:	15. 06. 2019 19:54

#	Modifying user name:	WinNT
#	Modification time:	15. 06. 2019 19:54

#	Program:	/corina/corina34_cracker 3.40 0067  02.08.2006

@<TRIPOS>MOLECULE
ASD01901601
  42   46    0    0    0
SMALL
NO_CHARGES


@<TRIPOS>ATOM
   1 C1             0.7231     1.4536    -0.1233 C.3     
   2 C2             2.2491     1.5582    -0.2562 C.3     
   3 N3             2.8431     0.9522     0.9478 N.pl3   
   4 C4             3.9259     1.5416     1.5903 C.ar    
   5 C5             3.7058     2.4257     2.6417 C.ar    
   6 C6             4.7924     3.0050     3.2721 C.ar    
   7 C7             6.0671     2.6795     2.8283 C.ar    
   8 C8             6.2124     1.7940     1.7788 C.ar    
   9 N9             5.1580     1.2524     1.1996 N.ar    
  10 C10            2.2766    -0.2445     1.4246 C.ar    
  11 C11            2.9537    -1.0060     2.3634 C.ar    
  12 C12            2.3947    -2.1798     2.8337 C.ar    
  13 C13            1.1551    -2.5946     2.3651 C.ar    
  14 N14            0.5893    -3.7815     2.8435 N.pl3   
  15 C15            0.8682    -4.2147     4.1434 C.2     
  16 N16            1.5524    -3.5598     5.0436 N.2     
  17 N17            1.6255    -4.3047     6.2252 N.pl3   
  18 H18            2.0803    -4.0292     7.0365 H       
  19 C19            0.9522    -5.4853     6.0538 C.ar    
  20 C20            0.7036    -6.5852     6.8741 C.ar    
  21 C21           -0.0338    -7.6323     6.3573 C.ar    
  22 C22           -0.5025    -7.5637     5.0518 C.ar    
  23 N23           -0.2595    -6.5200     4.2920 N.ar    
  24 C24            0.4404    -5.4812     4.7422 C.ar    
  25 C25            0.4756    -1.8335     1.4230 C.ar    
  26 C26            1.0344    -0.6574     0.9486 C.ar    
  27 O27            0.3660     0.0770     0.0204 O.3     
  28 H28            0.3939     2.0100     0.7543 H       
  29 H29            0.2498     1.8625    -1.0161 H       
  30 H30            2.5809     1.0193    -1.1436 H       
  31 H31            2.5433     2.6054    -0.3268 H       
  32 H32            2.7004     2.6569     2.9611 H       
  33 H33            4.6523     3.6952     4.0909 H       
  34 H34            6.9363     3.1148     3.2989 H       
  35 H35            7.2021     1.5381     1.4305 H       
  36 H36            3.9178    -0.6830     2.7273 H       
  37 H37            2.9221    -2.7741     3.5652 H       
  38 H38            0.0036    -4.3038     2.2734 H       
  39 H39            1.0782    -6.6176     7.8865 H       
  40 H40           -0.2446    -8.4998     6.9650 H       
  41 H41           -1.0784    -8.3856     4.6528 H       
  42 H42           -0.4882    -2.1583     1.0597 H       
@<TRIPOS>BOND
   1    1   27 1
   2    1    2 1
   3    1   28 1
   4    1   29 1
   5    2    3 1
   6    2   30 1
   7    2   31 1
   8    3    4 1
   9    3   10 1
  10    4    9 ar
  11    4    5 ar
  12    5    6 ar
  13    5   32 1
  14    6    7 ar
  15    6   33 1
  16    7    8 ar
  17    7   34 1
  18    8    9 ar
  19    8   35 1
  20   10   26 ar
  21   10   11 ar
  22   11   12 ar
  23   11   36 1
  24   12   13 ar
  25   12   37 1
  26   13   14 1
  27   13   25 ar
  28   14   15 1
  29   14   38 1
  30   15   24 1
  31   15   16 2
  32   16   17 1
  33   17   18 1
  34   17   19 1
  35   19   24 ar
  36   19   20 ar
  37   20   21 ar
  38   20   39 1
  39   21   22 ar
  40   21   40 1
  41   22   23 ar
  42   22   41 1
  43   23   24 ar
  44   25   26 ar
  45   25   42 1
  46   26   27 1

#	End of record

