#	Name: ASD01884372
#	Creating user name:	WinNT
#	Creation time:	15. 06. 2019 19:48

#	Modifying user name:	WinNT
#	Modification time:	15. 06. 2019 19:48

#	Program:	/corina/corina34_cracker 3.40 0067  02.08.2006

@<TRIPOS>MOLECULE
ASD01884372
  29   30    0    0    0
SMALL
NO_CHARGES


@<TRIPOS>ATOM
   1 C1             3.0793     2.5324     1.2096 C.ar    
   2 C2             3.6153     2.1335     2.4170 C.ar    
   3 N3             2.9097     2.2128     3.5291 N.ar    
   4 C4             1.6726     2.6726     3.5381 C.ar    
   5 C5             1.0657     3.0916     2.3723 C.ar    
   6 C6             1.7767     3.0237     1.1763 C.ar    
   7 O7             1.2143     3.4264     0.0084 O.3     
   8 C8            -0.0166     3.9952     0.0570 C.ar    
   9 C9            -0.1391     5.3671     0.2374 C.ar    
  10 C10           -1.1525     3.2037    -0.0797 C.ar    
  11 C11           -2.4033     3.7758    -0.0316 C.ar    
  12 C12           -2.5332     5.1534     0.1551 C.ar    
  13 C13           -1.3900     5.9484     0.2876 C.ar    
  14 B14           -3.9586     5.8092     0.2099 Du      
  15 F15           -1.5101     7.2818     0.4685 F       
  16 O16           -5.1178     5.0011     0.0694 O.3     
  17 O17           -4.0887     7.2104     0.4000 O.3     
  18 C18            0.9135     2.7402     4.8382 C.3     
  19 H19            3.6636     2.4687     0.3035 H       
  20 H20            4.6248     1.7513     2.4521 H       
  21 H21            0.0529     3.4665     2.3866 H       
  22 H22            0.7449     5.9792     0.3387 H       
  23 H23           -1.0525     2.1381    -0.2242 H       
  24 H24           -3.2838     3.1596    -0.1387 H       
  25 H25           -5.9487     5.4937     0.1166 H       
  26 H26           -5.0041     7.5213     0.4199 H       
  27 H27            1.0852     3.7080     5.3093 H       
  28 H28           -0.1517     2.6146     4.6439 H       
  29 H29            1.2578     1.9469     5.5017 H       
@<TRIPOS>BOND
   1    1    2 ar
   2    1    6 ar
   3    1   19 1
   4    2    3 ar
   5    2   20 1
   6    3    4 ar
   7    4    5 ar
   8    4   18 1
   9    5    6 ar
  10    5   21 1
  11    6    7 1
  12    7    8 1
  13    8    9 ar
  14    8   10 ar
  15    9   13 ar
  16    9   22 1
  17   10   11 ar
  18   10   23 1
  19   11   12 ar
  20   11   24 1
  21   12   13 ar
  22   12   14 1
  23   13   15 1
  24   14   16 1
  25   14   17 1
  26   16   25 1
  27   17   26 1
  28   18   27 1
  29   18   28 1
  30   18   29 1

#	End of record

