#	Name: ASD04881332
#	Creating user name:	WinNT
#	Creation time:	15. 06. 2019 20:53

#	Modifying user name:	WinNT
#	Modification time:	15. 06. 2019 20:53

#	Program:	/corina/corina34_cracker 3.40 0067  02.08.2006

@<TRIPOS>MOLECULE
ASD04881332
  72   78    0    0    0
SMALL
NO_CHARGES


@<TRIPOS>ATOM
   1 N1            -0.3355     1.7819     0.3035 N.2     
   2 C2             0.8425     2.1604    -0.2626 C.2     
   3 C3             1.3416     3.5398    -0.4067 C.2     
   4 O4             2.4179     3.7450    -0.9349 O.2     
   5 C5             1.4736     1.0254    -0.6700 C.2     
   6 O6             0.6749    -0.0042    -0.3464 O.3     
   7 C7            -0.4225     0.4867     0.2466 C.2     
   8 N8             0.6054     4.5736     0.0468 N.am    
   9 C9             1.1272     5.8736     0.0126 C.ar    
  10 C10            0.2795     6.9618    -0.2119 C.ar    
  11 C11            0.7957     8.2521    -0.2457 C.ar    
  12 C12            2.1438     8.4629    -0.0587 C.ar    
  13 C13            2.9972     7.3790     0.1662 C.ar    
  14 C14            2.4798     6.0812     0.2064 C.ar    
  15 C15            4.4413     7.6050     0.3661 C.2     
  16 O16            5.2011     6.6582     0.4344 O.2     
  17 N17            4.9184     8.8610     0.4730 N.am    
  18 N18           -1.0841     6.7532    -0.4024 N.3     
  19 C19           -1.3355     6.0220    -1.6521 C.3     
  20 C20           -2.8347     5.7439    -1.7846 C.3     
  21 N21           -3.5698     7.0163    -1.7652 N.3     
  22 C22           -3.3184     7.7475    -0.5155 C.3     
  23 C23           -1.8192     8.0255    -0.3831 C.3     
  24 C24           -4.9375     6.8071    -1.9563 C.ar    
  25 C25           -5.4057     6.3352    -3.1758 C.ar    
  26 C26           -6.7589     6.1289    -3.3612 C.ar    
  27 C27           -7.6469     6.3922    -2.3347 C.ar    
  28 C28           -7.1840     6.8622    -1.1191 C.ar    
  29 C29           -5.8320     7.0651    -0.9251 C.ar    
  30 C30           -4.4386     6.0489    -4.2955 C.3     
  31 C31           -1.5748    -0.3340     0.7657 C.3     
  32 C32           -2.3316    -1.2044    -0.2395 C.3     
  33 C33           -1.4050    -1.8544     0.7899 C.3     
  34 C34            6.2514     9.4810     0.5695 C.3     
  35 C35            4.3343    10.2120     0.5377 C.3     
  36 C36            5.5871    10.6445     1.2910 C.3     
  37 C37            5.6224    10.7897     2.8106 C.3     
  38 C38            6.1310    12.0693     1.2154 C.3     
  39 O39            5.5944    12.2102     2.5492 O.3     
  40 H40            2.4338     0.9646    -1.1608 H       
  41 H41           -0.2856     4.4177     0.3970 H       
  42 H42            0.1382     9.0911    -0.4193 H       
  43 H43            2.5419     9.4664    -0.0862 H       
  44 H44            3.1361     5.2422     0.3844 H       
  45 H45           -1.0007     6.6221    -2.4982 H       
  46 H46           -0.7905     5.0781    -1.6371 H       
  47 H47           -3.0270     5.2271    -2.7248 H       
  48 H48           -3.1639     5.1211    -0.9529 H       
  49 H49           -3.8634     8.6914    -0.5306 H       
  50 H50           -3.6531     7.1474     0.3306 H       
  51 H51           -1.6269     8.5424     0.5571 H       
  52 H52           -1.4900     8.6484    -1.2148 H       
  53 H53           -7.1236     5.7620    -4.3092 H       
  54 H54           -8.7045     6.2308    -2.4825 H       
  55 H55           -7.8804     7.0671    -0.3194 H       
  56 H56           -5.4708     7.4279     0.0258 H       
  57 H57           -4.1720     4.9921    -4.2841 H       
  58 H58           -4.9041     6.2959    -5.2497 H       
  59 H59           -3.5403     6.6517    -4.1627 H       
  60 H60           -2.1509     0.1212     1.5713 H       
  61 H61           -3.4056    -1.3221    -0.0951 H       
  62 H62           -1.9961    -1.1834    -1.2764 H       
  63 H63           -0.4597    -2.2610     0.4303 H       
  64 H64           -1.8693    -2.3997     1.6116 H       
  65 H65            6.9474     8.9216     1.1946 H       
  66 H66            6.6757     9.7533    -0.3968 H       
  67 H67            4.2271    10.6869    -0.4376 H       
  68 H68            3.4247    10.2647     1.1360 H       
  69 H69            4.7301    10.4144     3.3118 H       
  70 H70            6.5492    10.4421     3.2669 H       
  71 H71            7.2185    12.1258     1.1677 H       
  72 H72            5.6357    12.6929     0.4711 H       
@<TRIPOS>BOND
   1    1    7 2
   2    1    2 1
   3    2    3 1
   4    2    5 2
   5    3    4 2
   6    3    8 am
   7    5    6 1
   8    5   40 1
   9    6    7 1
  10    7   31 1
  11    8    9 1
  12    8   41 1
  13    9   10 ar
  14    9   14 ar
  15   10   11 ar
  16   10   18 1
  17   11   12 ar
  18   11   42 1
  19   12   13 ar
  20   12   43 1
  21   13   14 ar
  22   13   15 1
  23   14   44 1
  24   15   16 2
  25   15   17 am
  26   17   34 1
  27   17   35 1
  28   18   19 1
  29   18   23 1
  30   19   20 1
  31   19   45 1
  32   19   46 1
  33   20   21 1
  34   20   47 1
  35   20   48 1
  36   21   22 1
  37   21   24 1
  38   22   23 1
  39   22   49 1
  40   22   50 1
  41   23   51 1
  42   23   52 1
  43   24   25 ar
  44   24   29 ar
  45   25   26 ar
  46   25   30 1
  47   26   27 ar
  48   26   53 1
  49   27   28 ar
  50   27   54 1
  51   28   29 ar
  52   28   55 1
  53   29   56 1
  54   30   57 1
  55   30   58 1
  56   30   59 1
  57   31   32 1
  58   31   33 1
  59   31   60 1
  60   32   33 1
  61   32   61 1
  62   32   62 1
  63   33   63 1
  64   33   64 1
  65   34   36 1
  66   34   65 1
  67   34   66 1
  68   35   36 1
  69   35   67 1
  70   35   68 1
  71   36   37 1
  72   36   38 1
  73   37   39 1
  74   37   69 1
  75   37   70 1
  76   38   39 1
  77   38   71 1
  78   38   72 1

#	End of record

