#	Name: ASD01884683
#	Creating user name:	WinNT
#	Creation time:	15. 06. 2019 19:48

#	Modifying user name:	WinNT
#	Modification time:	15. 06. 2019 19:48

#	Program:	/corina/corina34_cracker 3.40 0067  02.08.2006

@<TRIPOS>MOLECULE
ASD01884683
  43   45    0    0    0
SMALL
NO_CHARGES


@<TRIPOS>ATOM
   1 C1            -0.0164     1.3564     0.0095 C.2     
   2 C2             0.0021    -0.0041     0.0020 C.2     
   3 C3             1.2485    -0.6745    -0.0135 C.2     
   4 C4             2.4153     0.0615    -0.0207 C.2     
   5 N5             2.3724     1.4105    -0.0126 N.am    
   6 C6             1.1978     2.0664     0.0017 C.2     
   7 O7             1.1857     3.2866     0.0088 O.2     
   8 C8             1.2995    -2.1473    -0.0214 C.2     
   9 C9             3.6239     2.1721    -0.0195 C.3     
  10 C10            4.0402     2.4414    -1.4426 C.ar    
  11 C11            3.6088     3.5875    -2.0835 C.ar    
  12 C12            3.9896     3.8357    -3.3893 C.ar    
  13 C13            4.8021     2.9380    -4.0551 C.ar    
  14 C14            5.2353     1.7896    -3.4138 C.ar    
  15 C15            4.8580     1.5450    -2.1045 C.ar    
  16 F16            6.0297     0.9111    -4.0638 F       
  17 C17            0.1607    -2.8585    -0.0139 C.2     
  18 C18            0.2117    -4.3315    -0.0218 C.ar    
  19 C19           -0.9710    -5.0739    -0.0140 C.ar    
  20 C20            1.4440    -4.9909    -0.0429 C.ar    
  21 C21            1.4872    -6.3694    -0.0502 C.ar    
  22 C22            0.3146    -7.1028    -0.0367 C.ar    
  23 C23           -0.9145    -6.4572    -0.0215 C.ar    
  24 O24           -2.0630    -7.1838    -0.0079 O.3     
  25 C25           -1.9306    -8.6066    -0.0101 C.3     
  26 H26           -0.9568     1.8874     0.0169 H       
  27 H27           -0.9212    -0.5644     0.0082 H       
  28 H28            3.3691    -0.4450    -0.0325 H       
  29 H29            2.2529    -2.6546    -0.0332 H       
  30 H30            3.4763     3.1183     0.5011 H       
  31 H31            4.4015     1.5978     0.4841 H       
  32 H32            2.9734     4.2896    -1.5640 H       
  33 H33            3.6516     4.7314    -3.8892 H       
  34 H34            5.0988     3.1317    -5.0753 H       
  35 H35            5.1953     0.6497    -1.6033 H       
  36 H36           -0.7927    -2.3513    -0.0021 H       
  37 H37           -1.9265    -4.5707    -0.0019 H       
  38 H38            2.3616    -4.4214    -0.0538 H       
  39 H39            2.4399    -6.8779    -0.0668 H       
  40 H40            0.3552    -8.1820    -0.0425 H       
  41 H41           -1.3962    -8.9204    -0.9067 H       
  42 H42           -1.3746    -8.9211     0.8731 H       
  43 H43           -2.9201    -9.0636     0.0018 H       
@<TRIPOS>BOND
   1    1    2 2
   2    1    6 1
   3    1   26 1
   4    2    3 1
   5    2   27 1
   6    3    4 2
   7    3    8 1
   8    4    5 1
   9    4   28 1
  10    5    6 am
  11    5    9 1
  12    6    7 2
  13    8   17 2
  14    8   29 1
  15    9   10 1
  16    9   30 1
  17    9   31 1
  18   10   11 ar
  19   10   15 ar
  20   11   12 ar
  21   11   32 1
  22   12   13 ar
  23   12   33 1
  24   13   14 ar
  25   13   34 1
  26   14   15 ar
  27   14   16 1
  28   15   35 1
  29   17   18 1
  30   17   36 1
  31   18   19 ar
  32   18   20 ar
  33   19   23 ar
  34   19   37 1
  35   20   21 ar
  36   20   38 1
  37   21   22 ar
  38   21   39 1
  39   22   23 ar
  40   22   40 1
  41   23   24 1
  42   24   25 1
  43   25   41 1
  44   25   42 1
  45   25   43 1

#	End of record

