#	Name: ASD06350036
#	Creating user name:	WinNT
#	Creation time:	15. 06. 2019 21:06

#	Modifying user name:	WinNT
#	Modification time:	15. 06. 2019 21:06

#	Program:	/corina/corina34_cracker 3.40 0067  02.08.2006

@<TRIPOS>MOLECULE
ASD06350036
  64   68    0    0    0
SMALL
NO_CHARGES


@<TRIPOS>ATOM
   1 C1            -4.2158     3.3091   -17.6465 C.3     
   2 O2            -3.4218     3.8592   -16.5934 O.3     
   3 C3            -2.4435     3.0676   -16.0804 C.ar    
   4 C4            -1.6350     3.5380   -15.0558 C.ar    
   5 C5            -0.6412     2.7315   -14.5360 C.ar    
   6 C6            -0.4519     1.4564   -15.0361 C.ar    
   7 C7            -1.2561     0.9854   -16.0575 C.ar    
   8 C8            -2.2553     1.7858   -16.5764 C.ar    
   9 C9             0.6330     0.5787   -14.4672 C.3     
  10 N10            0.0939    -0.2031   -13.3517 N.pl3   
  11 C11            0.9104    -1.0867   -12.6675 C.ar    
  12 N12            2.1769    -1.2128   -13.0350 N.ar    
  13 C13            2.9884    -2.0480   -12.4037 C.ar    
  14 C14            2.5011    -2.7951   -11.3482 C.ar    
  15 C15            1.1636    -2.6405   -10.9847 C.ar    
  16 N16            0.4076    -1.7815   -11.6579 N.ar    
  17 O17            0.6443    -3.3535    -9.9562 O.3     
  18 C18           -0.6354    -3.0897    -9.5783 C.ar    
  19 C19           -0.8807    -2.2943    -8.4697 C.ar    
  20 C20           -2.1801    -2.0254    -8.0853 C.ar    
  21 C21           -3.2417    -2.5520    -8.8087 C.ar    
  22 C22           -2.9971    -3.3490    -9.9196 C.ar    
  23 C23           -1.6968    -3.6129   -10.3071 C.ar    
  24 F24           -1.4577    -4.3880   -11.3874 F       
  25 N25           -4.5584    -2.2800    -8.4183 N.am    
  26 C26           -5.5320    -2.1925    -9.3462 C.2     
  27 O27           -5.3029    -2.5045   -10.4996 O.2     
  28 C28           -6.8712    -1.7198    -8.9644 C.2     
  29 C29           -7.9374    -1.8137    -9.8573 C.2     
  30 C30           -9.1934    -1.3556    -9.4602 C.2     
  31 C31           -9.3658    -0.8274    -8.2214 C.2     
  32 N32           -8.3330    -0.7331    -7.3479 N.am    
  33 C33           -7.1017    -1.1659    -7.6791 C.2     
  34 O34           -6.1857    -1.0730    -6.8803 O.2     
  35 C35           -8.5516    -0.1814    -6.0791 C.ar    
  36 C36           -8.7962     1.1790    -5.9452 C.ar    
  37 C37           -9.0119     1.7208    -4.6934 C.ar    
  38 C38           -8.9846     0.9085    -3.5721 C.ar    
  39 C39           -8.7409    -0.4485    -3.7036 C.ar    
  40 C40           -8.5299    -0.9952    -4.9540 C.ar    
  41 F41           -9.1955     1.4405    -2.3483 F       
  42 H42           -3.5740     3.0530   -18.4896 H       
  43 H43           -4.7219     2.4122   -17.2896 H       
  44 H44           -4.9570     4.0426   -17.9638 H       
  45 H45           -1.7822     4.5341   -14.6651 H       
  46 H46           -0.0113     3.0974   -13.7387 H       
  47 H47           -1.1058    -0.0107   -16.4468 H       
  48 H48           -2.8832     1.4174   -17.3742 H       
  49 H49            0.9974    -0.0965   -15.2414 H       
  50 H50            1.4544     1.2007   -14.1115 H       
  51 H51           -0.8353    -0.1015   -13.0926 H       
  52 H52            4.0193    -2.1443   -12.7107 H       
  53 H53            3.1416    -3.4835   -10.8169 H       
  54 H54           -0.0554    -1.8849    -7.9060 H       
  55 H55           -2.3702    -1.4057    -7.2215 H       
  56 H56           -3.8225    -3.7588   -10.4828 H       
  57 H57           -4.7700    -2.1545    -7.4800 H       
  58 H58           -7.7931    -2.2344   -10.8415 H       
  59 H59          -10.0304    -1.4208   -10.1395 H       
  60 H60          -10.3433    -0.4756    -7.9265 H       
  61 H61           -8.8172     1.8129    -6.8193 H       
  62 H62           -9.2018     2.7788    -4.5888 H       
  63 H63           -8.7196    -1.0803    -2.8279 H       
  64 H64           -8.3399    -2.0534    -5.0561 H       
@<TRIPOS>BOND
   1    1    2 1
   2    1   42 1
   3    1   43 1
   4    1   44 1
   5    2    3 1
   6    3    4 ar
   7    3    8 ar
   8    4    5 ar
   9    4   45 1
  10    5    6 ar
  11    5   46 1
  12    6    7 ar
  13    6    9 1
  14    7    8 ar
  15    7   47 1
  16    8   48 1
  17    9   10 1
  18    9   49 1
  19    9   50 1
  20   10   11 1
  21   10   51 1
  22   11   12 ar
  23   11   16 ar
  24   12   13 ar
  25   13   14 ar
  26   13   52 1
  27   14   15 ar
  28   14   53 1
  29   15   16 ar
  30   15   17 1
  31   17   18 1
  32   18   19 ar
  33   18   23 ar
  34   19   20 ar
  35   19   54 1
  36   20   21 ar
  37   20   55 1
  38   21   22 ar
  39   21   25 1
  40   22   23 ar
  41   22   56 1
  42   23   24 1
  43   25   26 am
  44   25   57 1
  45   26   27 2
  46   26   28 1
  47   28   29 2
  48   28   33 1
  49   29   30 1
  50   29   58 1
  51   30   31 2
  52   30   59 1
  53   31   32 1
  54   31   60 1
  55   32   33 am
  56   32   35 1
  57   33   34 2
  58   35   36 ar
  59   35   40 ar
  60   36   37 ar
  61   36   61 1
  62   37   38 ar
  63   37   62 1
  64   38   39 ar
  65   38   41 1
  66   39   40 ar
  67   39   63 1
  68   40   64 1

#	End of record

