#	Name: ASD01914573
#	Creating user name:	WinNT
#	Creation time:	15. 06. 2019 20:03

#	Modifying user name:	WinNT
#	Modification time:	15. 06. 2019 20:03

#	Program:	/corina/corina34_cracker 3.40 0067  02.08.2006

@<TRIPOS>MOLECULE
ASD01914573
  20   20    0    0    0
SMALL
NO_CHARGES


@<TRIPOS>ATOM
   1 C1            -0.0184     1.5028     0.0103 C.2     
   2 C2             0.0021    -0.0041     0.0020 C.3     
   3 C3             1.2447     2.2551     0.0023 C.ar    
   4 C4             1.2292     3.6546     0.0099 C.ar    
   5 C5             2.4161     4.3533     0.0028 C.ar    
   6 C6             3.6251     3.6730    -0.0119 C.ar    
   7 C7             3.6475     2.2862    -0.0200 C.ar    
   8 C8             2.4675     1.5751    -0.0072 C.ar    
   9 C9             2.4014     5.8602     0.0106 C.3     
  10 F10            4.7858     4.3643    -0.0188 F       
  11 Br11          -1.8423    -0.6846     0.0160 Br      
  12 O12           -1.0767     2.0948     0.0185 O.2     
  13 H13            0.5123    -0.3556    -0.8948 H       
  14 H14            0.5293    -0.3651     0.8851 H       
  15 H15            0.2887     4.1854     0.0210 H       
  16 H16            4.5920     1.7626    -0.0318 H       
  17 H17            2.4863     0.4953    -0.0090 H       
  18 H18            2.4071     6.2184     1.0401 H       
  19 H19            3.2832     6.2348    -0.5093 H       
  20 H20            1.5034     6.2174    -0.4934 H       
@<TRIPOS>BOND
   1    1    2 1
   2    1    3 1
   3    1   12 2
   4    2   11 1
   5    2   13 1
   6    2   14 1
   7    3    4 ar
   8    3    8 ar
   9    4    5 ar
  10    4   15 1
  11    5    6 ar
  12    5    9 1
  13    6    7 ar
  14    6   10 1
  15    7    8 ar
  16    7   16 1
  17    8   17 1
  18    9   18 1
  19    9   19 1
  20    9   20 1

#	End of record

