#	Name: ASD01918618
#	Creating user name:	WinNT
#	Creation time:	15. 06. 2019 20:11

#	Modifying user name:	WinNT
#	Modification time:	15. 06. 2019 20:11

#	Program:	/corina/corina34_cracker 3.40 0067  02.08.2006

@<TRIPOS>MOLECULE
ASD01918618
  42   45    0    0    0
SMALL
NO_CHARGES


@<TRIPOS>ATOM
   1 C1            -0.0168     1.3912     0.0097 C.ar    
   2 C2             0.0021    -0.0041     0.0020 C.ar    
   3 N3            -1.1226    -0.6891     0.0090 N.ar    
   4 C4            -2.3003    -0.0947     0.0234 C.ar    
   5 C5            -2.4038     1.2843     0.0314 C.ar    
   6 C6            -1.2509     2.0503     0.0309 C.ar    
   7 C7            -3.7576     1.9462     0.0469 C.3     
   8 C8            -4.3412     1.9516     1.4730 C.3     
   9 O9            -5.5663     1.1718     1.3557 O.3     
  10 C10           -5.7137     0.7601     0.0915 C.2     
  11 N11           -4.7281     1.1556    -0.7257 N.am    
  12 C12           -4.6511     3.3596     1.9116 C.ar    
  13 C13           -5.9270     3.8672     1.7549 C.ar    
  14 C14           -6.2124     5.1588     2.1575 C.ar    
  15 C15           -5.2220     5.9438     2.7171 C.ar    
  16 C16           -3.9443     5.4373     2.8747 C.ar    
  17 C17           -3.6599     4.1422     2.4764 C.ar    
  18 Cl18          -2.0572     3.5050     2.6740 Cl      
  19 Cl19          -2.6998     6.4231     3.5770 Cl      
  20 O20           -6.6551     0.0885    -0.2817 O.2     
  21 C21            1.2062     2.1359     0.0020 C.1     
  22 C22            2.2089     2.7465    -0.0043 C.1     
  23 C23            3.4662     3.5121    -0.0122 C.3     
  24 C24            3.2596     5.0359    -0.0020 C.3     
  25 C25            4.4450     5.1111     0.9747 C.3     
  26 C26            4.1013     3.6679     1.3797 C.3     
  27 F27            5.6862     5.2348     0.3412 F       
  28 F28            4.2644     6.0403     2.0048 F       
  29 H29            0.9472    -0.5266    -0.0101 H       
  30 H30           -3.1982    -0.6948     0.0287 H       
  31 H31           -1.3026     3.1290     0.0370 H       
  32 H32           -3.6906     2.9618    -0.3433 H       
  33 H33           -3.6510     1.4764     2.1701 H       
  34 H34           -4.6648     0.9533    -1.6723 H       
  35 H35           -6.7015     3.2547     1.3174 H       
  36 H36           -7.2096     5.5546     2.0343 H       
  37 H37           -5.4455     6.9527     3.0310 H       
  38 H38            4.1645     3.1712    -0.7765 H       
  39 H39            3.4557     5.5095    -0.9639 H       
  40 H40            2.3113     5.3450     0.4376 H       
  41 H41            3.3831     3.6031     2.1971 H       
  42 H42            4.9769     3.0372     1.5332 H       
@<TRIPOS>BOND
   1    1    2 ar
   2    1   21 1
   3    1    6 ar
   4    2    3 ar
   5    2   29 1
   6    3    4 ar
   7    4    5 ar
   8    4   30 1
   9    5    6 ar
  10    5    7 1
  11    6   31 1
  12    7    8 1
  13    7   11 1
  14    7   32 1
  15    8    9 1
  16    8   12 1
  17    8   33 1
  18    9   10 1
  19   10   11 am
  20   10   20 2
  21   11   34 1
  22   12   13 ar
  23   12   17 ar
  24   13   14 ar
  25   13   35 1
  26   14   15 ar
  27   14   36 1
  28   15   16 ar
  29   15   37 1
  30   16   17 ar
  31   16   19 1
  32   17   18 1
  33   21   22 3
  34   22   23 1
  35   23   24 1
  36   23   26 1
  37   23   38 1
  38   24   25 1
  39   24   39 1
  40   24   40 1
  41   25   26 1
  42   25   27 1
  43   25   28 1
  44   26   41 1
  45   26   42 1

#	End of record

