#	Name: ASD01885236
#	Creating user name:	WinNT
#	Creation time:	15. 06. 2019 19:49

#	Modifying user name:	WinNT
#	Modification time:	15. 06. 2019 19:49

#	Program:	/corina/corina34_cracker 3.40 0067  02.08.2006

@<TRIPOS>MOLECULE
ASD01885236
  52   56    0    0    0
SMALL
NO_CHARGES


@<TRIPOS>ATOM
   1 N1            -0.0158     1.3154     0.0093 N.ar    
   2 C2             0.0021    -0.0041     0.0020 C.ar    
   3 C3             1.2031    -0.7223    -0.0133 C.ar    
   4 C4             2.4099    -0.0364    -0.0211 C.ar    
   5 C5             2.3677     1.3809    -0.0131 C.ar    
   6 C6             3.5428     2.1430    -0.0211 C.ar    
   7 C7             3.4646     3.5036    -0.0141 C.ar    
   8 C8             2.2295     4.1483     0.0015 C.ar    
   9 C9             1.0680     3.4397     0.0102 C.ar    
  10 C10            1.1083     2.0324     0.0024 C.ar    
  11 C11           -1.2827    -0.7444     0.0108 C.2     
  12 O12           -1.2838    -1.9594     0.0043 O.2     
  13 N13           -2.4492    -0.0695     0.0260 N.am    
  14 C14            3.7006    -0.7619    -0.0368 C.ar    
  15 C15            3.9391    -1.7858     0.8804 C.ar    
  16 C16            5.1429    -2.4585     0.8617 C.ar    
  17 C17            6.1150    -2.1186    -0.0659 C.ar    
  18 C18            5.8829    -1.1023    -0.9791 C.ar    
  19 C19            4.6799    -0.4277    -0.9726 C.ar    
  20 F20            7.2930    -2.7800    -0.0796 F       
  21 C21            2.1793     5.6545     0.0094 C.3     
  22 N22            2.1492     6.1493    -1.3692 N.pl3   
  23 N23            3.0775     5.8470    -2.3738 N.2     
  24 C24            2.7175     6.4731    -3.4648 C.2     
  25 C25            1.5502     7.1931    -3.1905 C.2     
  26 C26            1.2190     6.9721    -1.8972 C.2     
  27 C27            0.7917     8.0570    -4.1648 C.3     
  28 O28            1.7123     8.6975    -5.0504 O.3     
  29 C29           -0.1730     7.1874    -4.9736 C.3     
  30 C30           -1.0404     7.8838    -6.0241 C.3     
  31 C31            0.1265     6.9964    -6.4618 C.3     
  32 H32            1.1911    -1.8022    -0.0186 H       
  33 H33            4.5062     1.6549    -0.0325 H       
  34 H34            4.3717     4.0897    -0.0203 H       
  35 H35            0.1188     3.9548     0.0222 H       
  36 H36           -2.4484     0.9005     0.0312 H       
  37 H37           -3.2897    -0.5538     0.0317 H       
  38 H38            3.1825    -2.0509     1.6040 H       
  39 H39            5.3285    -3.2512     1.5713 H       
  40 H40            6.6436    -0.8409    -1.6997 H       
  41 H41            4.4981     0.3609    -1.6877 H       
  42 H42            1.2830     5.9854     0.5339 H       
  43 H43            3.0619     6.0447     0.5163 H       
  44 H44            3.2330     6.4400    -4.4133 H       
  45 H45            0.3648     7.3829    -1.3795 H       
  46 H46            0.2280     8.8128    -3.6178 H       
  47 H47            2.2490     8.0840    -5.5707 H       
  48 H48           -0.6113     6.3466    -4.4362 H       
  49 H49           -2.0492     7.5009    -6.1780 H       
  50 H50           -0.9238     8.9615    -6.1390 H       
  51 H51            1.0108     7.4902    -6.8647 H       
  52 H52           -0.1146     6.0296    -6.9037 H       
@<TRIPOS>BOND
   1    1    2 ar
   2    1   10 ar
   3    2    3 ar
   4    2   11 1
   5    3    4 ar
   6    3   32 1
   7    4    5 ar
   8    4   14 1
   9    5    6 ar
  10    5   10 ar
  11    6    7 ar
  12    6   33 1
  13    7    8 ar
  14    7   34 1
  15    8    9 ar
  16    8   21 1
  17    9   10 ar
  18    9   35 1
  19   11   12 2
  20   11   13 am
  21   13   36 1
  22   13   37 1
  23   14   15 ar
  24   14   19 ar
  25   15   16 ar
  26   15   38 1
  27   16   17 ar
  28   16   39 1
  29   17   18 ar
  30   17   20 1
  31   18   19 ar
  32   18   40 1
  33   19   41 1
  34   21   22 1
  35   21   42 1
  36   21   43 1
  37   22   23 1
  38   22   26 1
  39   23   24 2
  40   24   25 1
  41   24   44 1
  42   25   26 2
  43   25   27 1
  44   26   45 1
  45   27   28 1
  46   27   29 1
  47   27   46 1
  48   28   47 1
  49   29   30 1
  50   29   31 1
  51   29   48 1
  52   30   31 1
  53   30   49 1
  54   30   50 1
  55   31   51 1
  56   31   52 1

#	End of record

