#	Name: ASD03092420
#	Creating user name:	WinNT
#	Creation time:	15. 06. 2019 20:32

#	Modifying user name:	WinNT
#	Modification time:	15. 06. 2019 20:32

#	Program:	/corina/corina34_cracker 3.40 0067  02.08.2006

@<TRIPOS>MOLECULE
ASD03092420
  56   59    0    0    0
SMALL
NO_CHARGES


@<TRIPOS>ATOM
   1 C1             0.3408     1.9901     0.1457 C.2     
   2 C2             0.5545     0.5306     0.2249 C.ar    
   3 C3             1.8511     0.0118     0.2368 C.ar    
   4 C4             2.0448    -1.3508     0.3112 C.ar    
   5 C5             0.9552    -2.2061     0.3738 C.ar    
   6 C6            -0.3342    -1.6964     0.3624 C.ar    
   7 C7            -0.5392    -0.3350     0.2940 C.ar    
   8 O8             1.2945     2.7420     0.0908 O.2     
   9 N9            -0.9115     2.4879     0.1288 N.am    
  10 F10            1.1506    -3.5410     0.4458 F       
  11 C11           -1.1235     3.9353     0.0503 C.3     
  12 S12           -4.9829     4.7245    -0.6384 S.3     
  13 C13           -4.5796     4.5779     1.0163 C.2     
  14 N14           -3.3137     4.3227     1.1505 N.2     
  15 C15           -2.6020     4.2271     0.0468 C.2     
  16 C16           -3.3080     4.4123    -1.0867 C.2     
  17 C17           -3.0728     5.3714    -3.3793 C.ar    
  18 C18           -2.7716     4.3622    -2.4628 C.ar    
  19 C19           -1.9523     3.3024    -2.8693 C.ar    
  20 C20           -1.4755     3.3030    -4.1684 C.ar    
  21 C21           -1.8201     4.3405    -5.0157 C.ar    
  22 N22           -2.5943     5.3269    -4.6053 N.ar    
  23 C23           -1.3023     4.3447    -6.4310 C.3     
  24 N24           -5.4747     4.7120     2.0634 N.3     
  25 C25           -6.8282     4.9985     1.5661 C.3     
  26 C26           -7.7715     5.1979     2.7554 C.3     
  27 O27           -7.7350     4.0346     3.5866 O.3     
  28 C28           -6.4319     3.7266     4.0890 C.3     
  29 C29           -5.4751     3.5123     2.9132 C.3     
  30 C30           -6.4978     2.4521     4.9329 C.3     
  31 C31           -9.1973     5.4170     2.2455 C.3     
  32 H32            2.7004     0.6771     0.1873 H       
  33 H33            3.0470    -1.7531     0.3205 H       
  34 H34           -1.1794    -2.3670     0.4113 H       
  35 H35           -1.5439     0.0612     0.2892 H       
  36 H36           -1.6726     1.8877     0.1686 H       
  37 H37           -0.6600     4.4176     0.9110 H       
  38 H38           -0.6752     4.3190    -0.8662 H       
  39 H39           -3.7072     6.1932    -3.0817 H       
  40 H40           -1.6986     2.5050    -2.1865 H       
  41 H41           -0.8407     2.5019    -4.5170 H       
  42 H42           -2.0068     3.8211    -7.0772 H       
  43 H43           -1.1900     5.3732    -6.7738 H       
  44 H44           -0.3354     3.8426    -6.4655 H       
  45 H45           -6.8093     5.9047     0.9607 H       
  46 H46           -7.1779     4.1625     0.9604 H       
  47 H47           -7.4526     6.0667     3.3312 H       
  48 H48           -6.0741     4.5527     4.7035 H       
  49 H49           -5.8032     2.6525     2.3290 H       
  50 H50           -4.4684     3.3336     3.2910 H       
  51 H51           -6.8539     1.6264     4.3168 H       
  52 H52           -5.5044     2.2179     5.3154 H       
  53 H53           -7.1821     2.6040     5.7676 H       
  54 H54           -9.5156     4.5467     1.6716 H       
  55 H55           -9.8683     5.5589     3.0927 H       
  56 H56           -9.2236     6.3014     1.6090 H       
@<TRIPOS>BOND
   1    1    2 1
   2    1    8 2
   3    1    9 am
   4    2    3 ar
   5    2    7 ar
   6    3    4 ar
   7    3   32 1
   8    4    5 ar
   9    4   33 1
  10    5    6 ar
  11    5   10 1
  12    6    7 ar
  13    6   34 1
  14    7   35 1
  15    9   11 1
  16    9   36 1
  17   11   15 1
  18   11   37 1
  19   11   38 1
  20   12   13 1
  21   12   16 1
  22   13   14 2
  23   13   24 1
  24   14   15 1
  25   15   16 2
  26   16   18 1
  27   17   18 ar
  28   17   22 ar
  29   17   39 1
  30   18   19 ar
  31   19   20 ar
  32   19   40 1
  33   20   21 ar
  34   20   41 1
  35   21   22 ar
  36   21   23 1
  37   23   42 1
  38   23   43 1
  39   23   44 1
  40   24   25 1
  41   24   29 1
  42   25   26 1
  43   25   45 1
  44   25   46 1
  45   26   27 1
  46   26   31 1
  47   26   47 1
  48   27   28 1
  49   28   29 1
  50   28   30 1
  51   28   48 1
  52   29   49 1
  53   29   50 1
  54   30   51 1
  55   30   52 1
  56   30   53 1
  57   31   54 1
  58   31   55 1
  59   31   56 1

#	End of record

