#	Name: ASD01940583
#	Creating user name:	WinNT
#	Creation time:	15. 06. 2019 20:12

#	Modifying user name:	WinNT
#	Modification time:	15. 06. 2019 20:12

#	Program:	/corina/corina34_cracker 3.40 0067  02.08.2006

@<TRIPOS>MOLECULE
ASD01940583
  60   62    0    0    0
SMALL
NO_CHARGES


@<TRIPOS>ATOM
   1 C1            -1.0750     3.2853    -0.1679 C.ar    
   2 C2            -1.9358     2.8985    -1.1861 C.ar    
   3 C3            -1.5673     3.0842    -2.5128 C.ar    
   4 C4            -0.3456     3.6525    -2.8183 C.ar    
   5 C5             0.5125     4.0381    -1.8063 C.ar    
   6 C6             0.1495     3.8555    -0.4786 C.ar    
   7 N7            -3.1704     2.3231    -0.8773 N.am    
   8 S8            -3.4046     0.6984    -1.0958 S.o2    
   9 C9            -2.3154    -0.0842     0.1256 C.3     
  10 O10           -4.7681     0.4916    -0.7530 O.2     
  11 O11           -2.9349     0.4508    -2.4138 O.2     
  12 O12            0.9942     4.2356     0.5155 O.3     
  13 C13            2.2215     4.7053     0.1656 C.ar    
  14 C14            3.2968     3.8341     0.0693 C.ar    
  15 C15            4.5467     4.3103    -0.2867 C.ar    
  16 C16            4.7296     5.6573    -0.5485 C.ar    
  17 C17            3.6588     6.5355    -0.4548 C.ar    
  18 C18            2.3987     6.0583    -0.1014 C.ar    
  19 N19            3.8439     7.8978    -0.7197 N.pl3   
  20 C20            4.9702     8.5604    -0.2212 C.ar    
  21 C21            5.8280     7.9109     0.6565 C.ar    
  22 C22            6.9397     8.5677     1.1474 C.ar    
  23 C23            7.1996     9.8719     0.7662 C.ar    
  24 C24            6.3478    10.5234    -0.1077 C.ar    
  25 C25            5.2368     9.8697    -0.6080 C.ar    
  26 F26            4.4081    10.5037    -1.4662 F       
  27 I27            8.8869    10.8628     1.5147 I       
  28 N28            1.3113     6.9422    -0.0101 N.am    
  29 S29            0.5234     7.1393     1.4330 S.o2    
  30 C30           -2.3666    -1.6038    -0.0450 C.3     
  31 F31            5.5912     3.4584    -0.3784 F       
  32 O32           -0.5345     8.0398     1.1346 O.2     
  33 O33            0.2560     5.8139     1.8701 O.2     
  34 C34            1.7475     7.9308     2.5127 C.3     
  35 C35            2.1927     9.2568     1.8927 C.3     
  36 C36            1.1235     8.1933     3.8847 C.3     
  37 H37           -1.3608     3.1462     0.8642 H       
  38 H38           -2.2361     2.7837    -3.3058 H       
  39 H39           -0.0606     3.7954    -3.8501 H       
  40 H40            1.4669     4.4817    -2.0483 H       
  41 H41           -3.8907     2.8752    -0.5348 H       
  42 H42           -1.2933     0.2639    -0.0231 H       
  43 H43           -2.6467     0.1800     1.1299 H       
  44 H44            3.1585     2.7825     0.2727 H       
  45 H45            5.7064     6.0253    -0.8256 H       
  46 H46            3.1910     8.3820    -1.2489 H       
  47 H47            5.6260     6.8929     0.9556 H       
  48 H48            7.6068     8.0624     1.8300 H       
  49 H49            6.5531    11.5418    -0.4028 H       
  50 H50            1.0217     7.4373    -0.7924 H       
  51 H51           -3.3887    -1.9520     0.1038 H       
  52 H52           -2.0353    -1.8680    -1.0493 H       
  53 H53           -1.7121    -2.0741     0.6889 H       
  54 H54            2.6106     7.2746     2.6256 H       
  55 H55            2.9283     9.7324     2.5414 H       
  56 H56            2.6373     9.0698     0.9152 H       
  57 H57            1.3297     9.9129     1.7797 H       
  58 H58            0.7340     7.2600     4.2913 H       
  59 H59            1.8812     8.5946     4.5577 H       
  60 H60            0.3107     8.9123     3.7826 H       
@<TRIPOS>BOND
   1    1    2 ar
   2    1    6 ar
   3    1   37 1
   4    2    3 ar
   5    2    7 1
   6    3    4 ar
   7    3   38 1
   8    4    5 ar
   9    4   39 1
  10    5    6 ar
  11    5   40 1
  12    6   12 1
  13    7    8 am
  14    7   41 1
  15    8    9 1
  16    8   10 2
  17    8   11 2
  18    9   30 1
  19    9   42 1
  20    9   43 1
  21   12   13 1
  22   13   14 ar
  23   13   18 ar
  24   14   15 ar
  25   14   44 1
  26   15   16 ar
  27   15   31 1
  28   16   17 ar
  29   16   45 1
  30   17   18 ar
  31   17   19 1
  32   18   28 1
  33   19   20 1
  34   19   46 1
  35   20   21 ar
  36   20   25 ar
  37   21   22 ar
  38   21   47 1
  39   22   23 ar
  40   22   48 1
  41   23   24 ar
  42   23   27 1
  43   24   25 ar
  44   24   49 1
  45   25   26 1
  46   28   29 am
  47   28   50 1
  48   29   32 2
  49   29   33 2
  50   29   34 1
  51   30   51 1
  52   30   52 1
  53   30   53 1
  54   34   35 1
  55   34   36 1
  56   34   54 1
  57   35   55 1
  58   35   56 1
  59   35   57 1
  60   36   58 1
  61   36   59 1
  62   36   60 1

#	End of record

