#	Name: ASD04882322
#	Creating user name:	WinNT
#	Creation time:	15. 06. 2019 20:54

#	Modifying user name:	WinNT
#	Modification time:	15. 06. 2019 20:54

#	Program:	/corina/corina34_cracker 3.40 0067  02.08.2006

@<TRIPOS>MOLECULE
ASD04882322
  76   81    0    0    0
SMALL
NO_CHARGES


@<TRIPOS>ATOM
   1 N1            -0.0169     1.3970     0.0097 N.am    
   2 C2             0.1097     0.0022    -0.0340 C.ar    
   3 C3            -1.0276    -0.8061     0.0459 C.ar    
   4 C4            -0.9035    -2.1901     0.0027 C.ar    
   5 C5             0.3398    -2.7696    -0.1194 C.ar    
   6 C6             1.4813    -1.9670    -0.2002 C.ar    
   7 C7             1.3588    -0.5752    -0.1618 C.ar    
   8 N8            -2.2868    -0.2245     0.1694 N.3     
   9 C9            -3.1529    -0.5994    -0.9570 C.3     
  10 C10           -2.9095    -0.5838     1.4511 C.3     
  11 C11           -4.2532     0.1371     1.5823 C.3     
  12 N12           -5.1193    -0.2379     0.4558 N.3     
  13 C13           -4.4966     0.1215    -0.8259 C.3     
  14 C14            2.8131    -2.5880    -0.3310 C.2     
  15 O15            3.8056    -1.8890    -0.4013 O.2     
  16 C16            0.9210     2.1770    -0.5632 C.2     
  17 C17            0.7440     3.6400    -0.5949 C.2     
  18 O18            1.9136     1.6738    -1.0541 O.2     
  19 N19            2.9297    -3.9301    -0.3727 N.am    
  20 N20           -0.3086     4.3381    -0.0886 N.2     
  21 C21           -0.1071     5.6030    -0.3070 C.2     
  22 O22            1.0592     5.7603    -0.9489 O.3     
  23 C23            1.6053     4.5473    -1.1309 C.2     
  24 C24           -1.0379     6.7173     0.0970 C.3     
  25 C25           -0.4922     7.7832     1.0493 C.3     
  26 C26           -0.7267     8.1217    -0.4243 C.3     
  27 C27            4.2523    -4.5467    -0.5026 C.3     
  28 C28            4.1050    -6.0695    -0.5254 C.3     
  29 C29            5.4654    -6.7038    -0.6590 C.2     
  30 C30           -6.3823     0.3456     0.5797 C.ar    
  31 C31           -7.5142    -0.4554     0.6593 C.ar    
  32 C32           -6.5087     1.7282     0.6293 C.ar    
  33 C33           -7.7588     2.3018     0.7518 C.ar    
  34 C34           -8.8843     1.5014     0.8255 C.ar    
  35 C35           -8.7617     0.1249     0.7817 C.ar    
  36 C36           -7.3815    -1.9558     0.6116 C.3     
  37 C37            5.9941    -7.6245     0.1694 C.2     
  38 N38            6.3596    -6.4546    -1.6272 N.2     
  39 C39            7.4246    -7.1818    -1.4270 C.2     
  40 N40            7.2379    -7.9263    -0.3159 N.pl3   
  41 C41            8.1891    -8.8787     0.2623 C.3     
  42 H42           -0.7817     1.8010     0.4488 H       
  43 H43           -1.7841    -2.8123     0.0653 H       
  44 H44            0.4330    -3.8451    -0.1524 H       
  45 H45            2.2391     0.0475    -0.2240 H       
  46 H46           -2.6759    -0.3119    -1.8940 H       
  47 H47           -3.3159    -1.6771    -0.9474 H       
  48 H48           -3.0697    -1.6613     1.4881 H       
  49 H49           -2.2550    -0.2848     2.2699 H       
  50 H50           -4.7302    -0.1505     2.5192 H       
  51 H51           -4.0902     1.2148     1.5726 H       
  52 H52           -4.3364     1.1990    -0.8629 H       
  53 H53           -5.1511    -0.1775    -1.6446 H       
  54 H54            2.1380    -4.4877    -0.3166 H       
  55 H55            2.5458     4.3321    -1.6163 H       
  56 H56           -2.0868     6.4394     0.2004 H       
  57 H57           -1.1822     8.2069     1.7789 H       
  58 H58            0.5400     7.6786     1.3836 H       
  59 H59            0.1512     8.2397    -1.0594 H       
  60 H60           -1.5710     8.7680    -0.6641 H       
  61 H61            4.7194    -4.2130    -1.4291 H       
  62 H62            4.8741    -4.2545     0.3436 H       
  63 H63            3.6379    -6.4032     0.4011 H       
  64 H64            3.4831    -6.3617    -1.3716 H       
  65 H65           -5.6301     2.3538     0.5725 H       
  66 H66           -7.8577     3.3765     0.7904 H       
  67 H67           -9.8608     1.9525     0.9219 H       
  68 H68           -9.6426    -0.4972     0.8394 H       
  69 H69           -7.2602    -2.3421     1.6236 H       
  70 H70           -8.2773    -2.3857     0.1636 H       
  71 H71           -6.5111    -2.2247     0.0132 H       
  72 H72            5.5267    -8.0438     1.0481 H       
  73 H73            8.3077    -7.1892    -2.0487 H       
  74 H74            8.8304    -8.3631     0.9771 H       
  75 H75            7.6437    -9.6735     0.7709 H       
  76 H76            8.8010    -9.3080    -0.5311 H       
@<TRIPOS>BOND
   1    1    2 1
   2    1   16 am
   3    1   42 1
   4    2    3 ar
   5    2    7 ar
   6    3    4 ar
   7    3    8 1
   8    4    5 ar
   9    4   43 1
  10    5    6 ar
  11    5   44 1
  12    6    7 ar
  13    6   14 1
  14    7   45 1
  15    8    9 1
  16    8   10 1
  17    9   13 1
  18    9   46 1
  19    9   47 1
  20   10   11 1
  21   10   48 1
  22   10   49 1
  23   11   12 1
  24   11   50 1
  25   11   51 1
  26   12   13 1
  27   12   30 1
  28   13   52 1
  29   13   53 1
  30   14   15 2
  31   14   19 am
  32   16   18 2
  33   16   17 1
  34   17   20 1
  35   17   23 2
  36   19   27 1
  37   19   54 1
  38   20   21 2
  39   21   22 1
  40   21   24 1
  41   22   23 1
  42   23   55 1
  43   24   25 1
  44   24   26 1
  45   24   56 1
  46   25   26 1
  47   25   57 1
  48   25   58 1
  49   26   59 1
  50   26   60 1
  51   27   28 1
  52   27   61 1
  53   27   62 1
  54   28   29 1
  55   28   63 1
  56   28   64 1
  57   29   37 2
  58   29   38 1
  59   30   31 ar
  60   30   32 ar
  61   31   36 1
  62   31   35 ar
  63   32   33 ar
  64   32   65 1
  65   33   34 ar
  66   33   66 1
  67   34   35 ar
  68   34   67 1
  69   35   68 1
  70   36   69 1
  71   36   70 1
  72   36   71 1
  73   37   40 1
  74   37   72 1
  75   38   39 2
  76   39   40 1
  77   39   73 1
  78   40   41 1
  79   41   74 1
  80   41   75 1
  81   41   76 1

#	End of record

