#	Name: ASD02448022
#	Creating user name:	WinNT
#	Creation time:	15. 06. 2019 20:21

#	Modifying user name:	WinNT
#	Modification time:	15. 06. 2019 20:21

#	Program:	/corina/corina34_cracker 3.40 0067  02.08.2006

@<TRIPOS>MOLECULE
ASD02448022
  88   93    0    0    0
SMALL
NO_CHARGES


@<TRIPOS>ATOM
   1 C1             3.4204    -7.4506    -1.1639 C.ar    
   2 C2             2.8861    -6.3584    -0.5103 C.ar    
   3 C3             2.2564    -5.3554    -1.2347 C.ar    
   4 C4             2.1637    -5.4503    -2.6167 C.ar    
   5 C5             2.6973    -6.5425    -3.2710 C.ar    
   6 C6             3.3279    -7.5460    -2.5466 C.ar    
   7 N7             3.8689    -8.6521    -3.2089 N.am    
   8 C8             4.9607    -9.5267    -2.7617 C.3     
   9 C9             5.2409   -10.6013    -3.7622 C.2     
  10 N10            4.4638   -10.5685    -4.8540 N.am    
  11 S11            3.4172    -9.2851    -4.6849 S.o2    
  12 O12            6.1041   -11.4374    -3.5991 O.2     
  13 O13            2.1115    -9.8258    -4.5355 O.2     
  14 O14            3.7695    -8.3241    -5.6706 O.2     
  15 N15            1.7128    -4.2452    -0.5698 N.pl3   
  16 C16            0.7848    -4.2760     0.4361 C.2     
  17 C17            2.0144    -2.9408    -0.8009 C.2     
  18 N18            1.3134    -2.1962     0.0080 N.2     
  19 C19            0.5441    -2.9851     0.7851 C.2     
  20 C20           -0.3978    -2.5253     1.8352 C.ar    
  21 C21           -0.5479    -1.1626     2.0926 C.ar    
  22 C22           -1.1396    -3.4527     2.5636 C.ar    
  23 C23           -2.0149    -3.0200     3.5391 C.ar    
  24 C24           -2.1572    -1.6670     3.7945 C.ar    
  25 C25           -1.4264    -0.7403     3.0708 C.ar    
  26 C26            2.9987    -2.4368    -1.8247 C.3     
  27 C27            4.3374    -2.2167    -1.1687 C.ar    
  28 C28            5.2216    -3.2722    -1.0361 C.ar    
  29 C29            4.6797    -0.9587    -0.7065 C.ar    
  30 C30            5.9048    -0.7511    -0.1058 C.ar    
  31 C31            6.7974    -1.8120     0.0353 C.ar    
  32 C32            6.4490    -3.0763    -0.4361 C.ar    
  33 C33            8.1156    -1.5950     0.6802 C.ar    
  34 C34            9.0074    -2.6573     0.8205 C.ar    
  35 C35            8.4668    -0.3274     1.1417 C.ar    
  36 C36            9.6924    -0.1282     1.7408 C.ar    
  37 C37           10.5777    -1.1898     1.8843 C.ar    
  38 C38           10.2319    -2.4533     1.4202 C.ar    
  39 N39           11.8208    -0.9851     2.4915 N.am    
  40 Cl40           0.3681     0.0001     1.1855 Cl      
  41 Cl41          -3.2604    -1.1299     5.0226 Cl      
  42 C42           11.9504    -1.8264     4.7843 C.3     
  43 C43           11.8914    -0.5807     3.8978 C.3     
  44 C44           12.1494    -1.4060     6.2419 C.3     
  45 C45           12.9538    -1.1599     1.7829 C.2     
  46 O46           12.8954    -1.4010     0.5934 O.2     
  47 O47           14.1506    -1.0672     2.3930 O.3     
  48 C48           15.3285    -1.2669     1.5678 C.3     
  49 C49           15.7798     0.0758     0.9896 C.3     
  50 C50           16.4531    -1.8594     2.4192 C.3     
  51 C51           10.6417    -2.6081     4.6531 C.3     
  52 H52            3.9142    -8.2286    -0.6006 H       
  53 H53            2.9576    -6.2843     0.5648 H       
  54 H54            1.6737    -4.6699    -3.1799 H       
  55 H55            2.6246    -6.6166    -4.3460 H       
  56 H56            5.8609    -8.9290    -2.6183 H       
  57 H57            4.6844    -9.9859    -1.8126 H       
  58 H58            4.5022   -11.1823    -5.6040 H       
  59 H59            0.3319    -5.1559     0.8686 H       
  60 H60           -1.0302    -4.5086     2.3649 H       
  61 H61           -2.5903    -3.7384     4.1041 H       
  62 H62           -1.5409     0.3142     3.2739 H       
  63 H63            3.1016    -3.1723    -2.6226 H       
  64 H64            2.6394    -1.4961    -2.2419 H       
  65 H65            4.9509    -4.2514    -1.4024 H       
  66 H66            3.9872    -0.1373    -0.8164 H       
  67 H67            6.1713     0.2317     0.2541 H       
  68 H68            7.1370    -3.9020    -0.3294 H       
  69 H69            8.7391    -3.6393     0.4600 H       
  70 H70            7.7795     0.4980     1.0297 H       
  71 H71            9.9650     0.8537     2.0985 H       
  72 H72           10.9213    -3.2769     1.5332 H       
  73 H73           12.7829    -2.4563     4.4709 H       
  74 H74           12.7853     0.0220     4.0581 H       
  75 H75           11.0079     0.0048     4.1523 H       
  76 H76           11.3169    -0.7761     6.5553 H       
  77 H77           12.1914    -2.2934     6.8734 H       
  78 H78           13.0817    -0.8491     6.3353 H       
  79 H79           15.0899    -1.9513     0.7537 H       
  80 H80           16.6640    -0.0741     0.3702 H       
  81 H81           14.9785     0.4980     0.3831 H       
  82 H82           16.0183     0.7602     1.8038 H       
  83 H83           16.1316    -2.8160     2.8311 H       
  84 H84           17.3374    -2.0093     1.7997 H       
  85 H85           16.6917    -1.1750     3.2333 H       
  86 H86           10.4999    -2.9076     3.6147 H       
  87 H87           10.6838    -3.4955     5.2847 H       
  88 H88            9.8092    -1.9782     4.9665 H       
@<TRIPOS>BOND
   1    1    2 ar
   2    1    6 ar
   3    1   52 1
   4    2    3 ar
   5    2   53 1
   6    3    4 ar
   7    3   15 1
   8    4    5 ar
   9    4   54 1
  10    5    6 ar
  11    5   55 1
  12    6    7 1
  13    7    8 1
  14    7   11 am
  15    8    9 1
  16    8   56 1
  17    8   57 1
  18    9   10 am
  19    9   12 2
  20   10   11 am
  21   10   58 1
  22   11   13 2
  23   11   14 2
  24   15   16 1
  25   15   17 1
  26   16   19 2
  27   16   59 1
  28   17   18 2
  29   17   26 1
  30   18   19 1
  31   19   20 1
  32   20   21 ar
  33   20   22 ar
  34   21   40 1
  35   21   25 ar
  36   22   23 ar
  37   22   60 1
  38   23   24 ar
  39   23   61 1
  40   24   25 ar
  41   24   41 1
  42   25   62 1
  43   26   27 1
  44   26   63 1
  45   26   64 1
  46   27   28 ar
  47   27   29 ar
  48   28   32 ar
  49   28   65 1
  50   29   30 ar
  51   29   66 1
  52   30   31 ar
  53   30   67 1
  54   31   32 ar
  55   31   33 1
  56   32   68 1
  57   33   34 ar
  58   33   35 ar
  59   34   38 ar
  60   34   69 1
  61   35   36 ar
  62   35   70 1
  63   36   37 ar
  64   36   71 1
  65   37   38 ar
  66   37   39 1
  67   38   72 1
  68   39   45 am
  69   39   43 1
  70   42   43 1
  71   42   51 1
  72   42   44 1
  73   42   73 1
  74   43   74 1
  75   43   75 1
  76   44   76 1
  77   44   77 1
  78   44   78 1
  79   45   46 2
  80   45   47 1
  81   47   48 1
  82   48   49 1
  83   48   50 1
  84   48   79 1
  85   49   80 1
  86   49   81 1
  87   49   82 1
  88   50   83 1
  89   50   84 1
  90   50   85 1
  91   51   86 1
  92   51   87 1
  93   51   88 1

#	End of record

