#	Name: ASD01814538
#	Creating user name:	WinNT
#	Creation time:	15. 06. 2019 19:32

#	Modifying user name:	WinNT
#	Modification time:	15. 06. 2019 19:32

#	Program:	/corina/corina34_cracker 3.40 0067  02.08.2006

@<TRIPOS>MOLECULE
ASD01814538
  56   61    0    0    0
SMALL
NO_CHARGES


@<TRIPOS>ATOM
   1 C1             0.2019     1.0517     0.0749 C.ar    
   2 C2             0.3303    -0.3165     0.2699 C.ar    
   3 C3            -0.7946    -1.1183     0.2956 C.ar    
   4 C4            -2.0482    -0.5602     0.1270 C.ar    
   5 C5            -2.1817     0.8026    -0.0682 C.ar    
   6 C6            -1.0609     1.6121    -0.0884 C.ar    
   7 F7            -1.1911     2.9433    -0.2785 F       
   8 N8             1.3405     1.8670     0.0483 N.am    
   9 C9             2.1069     2.0942    -1.0382 C.2     
  10 N10            1.8502     2.5727     1.1427 N.2     
  11 C11            2.9211     3.2359     0.7810 C.2     
  12 C12            3.1396     2.9602    -0.6417 C.2     
  13 O13            1.9353     1.6323    -2.1584 O.2     
  14 N14            3.7985     4.0761     1.4468 N.pl3   
  15 C15            4.8529     4.6335     0.7774 C.2     
  16 C16            5.0710     4.3713    -0.5890 C.2     
  17 C17            4.2359     3.5526    -1.2944 C.2     
  18 C18            3.6021     4.3405     2.7658 C.2     
  19 C19            4.4429     5.1578     3.4427 C.2     
  20 C20            5.5319     5.7435     2.7856 C.2     
  21 C21            5.7364     5.4837     1.4612 C.2     
  22 N22            6.1645     4.9637    -1.2379 N.pl3   
  23 C23            7.5436     4.6166    -0.8627 C.3     
  24 C24            5.9622     5.9439    -2.3157 C.3     
  25 C25            6.7986     5.5157    -3.5263 C.3     
  26 N26            8.1951     5.3284    -3.1110 N.3     
  27 C27            8.3145     4.2434    -2.1334 C.3     
  28 C28            9.0161     5.0982    -4.2112 C.ar    
  29 C29           10.3808     4.8952    -4.0288 C.ar    
  30 C30           11.1956     4.6673    -5.1146 C.ar    
  31 C31           10.6506     4.6394    -6.4018 C.ar    
  32 C32            9.2792     4.8432    -6.5814 C.ar    
  33 C33            8.4694     5.0658    -5.4907 C.ar    
  34 C34           11.4952     4.4030    -7.5337 C.1     
  35 N35           12.1653     4.2155    -8.4317 N.1     
  36 H36            1.3089    -0.7541     0.4011 H       
  37 H37           -0.6945    -2.1829     0.4474 H       
  38 H38           -2.9254    -1.1899     0.1473 H       
  39 H39           -3.1624     1.2353    -0.2000 H       
  40 H40            4.4160     3.3610    -2.3419 H       
  41 H41            2.7645     3.8931     3.2802 H       
  42 H42            4.2734     5.3584     4.4903 H       
  43 H43            6.2046     6.3959     3.3224 H       
  44 H44            6.5726     5.9292     0.9427 H       
  45 H45            8.0193     5.4726    -0.3840 H       
  46 H46            7.5344     3.7688    -0.1778 H       
  47 H47            4.9080     5.9732    -2.5910 H       
  48 H48            6.2832     6.9297    -1.9792 H       
  49 H49            6.4088     4.5790    -3.9247 H       
  50 H50            6.7479     6.2872    -4.2946 H       
  51 H51            9.3649     4.0914    -1.8852 H       
  52 H52            7.9038     3.3264    -2.5559 H       
  53 H53           10.8011     4.9169    -3.0342 H       
  54 H54           12.2546     4.5105    -4.9724 H       
  55 H55            8.8550     4.8227    -7.5744 H       
  56 H56            7.4099     5.2230    -5.6287 H       
@<TRIPOS>BOND
   1    1    2 ar
   2    1    8 1
   3    1    6 ar
   4    2    3 ar
   5    2   36 1
   6    3    4 ar
   7    3   37 1
   8    4    5 ar
   9    4   38 1
  10    5    6 ar
  11    5   39 1
  12    6    7 1
  13    8    9 am
  14    8   10 1
  15    9   13 2
  16    9   12 1
  17   10   11 2
  18   11   12 1
  19   11   14 1
  20   12   17 2
  21   14   15 1
  22   14   18 1
  23   15   16 2
  24   15   21 1
  25   16   17 1
  26   16   22 1
  27   17   40 1
  28   18   19 2
  29   18   41 1
  30   19   20 1
  31   19   42 1
  32   20   21 2
  33   20   43 1
  34   21   44 1
  35   22   23 1
  36   22   24 1
  37   23   27 1
  38   23   45 1
  39   23   46 1
  40   24   25 1
  41   24   47 1
  42   24   48 1
  43   25   26 1
  44   25   49 1
  45   25   50 1
  46   26   27 1
  47   26   28 1
  48   27   51 1
  49   27   52 1
  50   28   29 ar
  51   28   33 ar
  52   29   30 ar
  53   29   53 1
  54   30   31 ar
  55   30   54 1
  56   31   32 ar
  57   31   34 1
  58   32   33 ar
  59   32   55 1
  60   33   56 1
  61   34   35 3

#	End of record

