#	Name: ASD02198250
#	Creating user name:	WinNT
#	Creation time:	15. 06. 2019 20:19

#	Modifying user name:	WinNT
#	Modification time:	15. 06. 2019 20:19

#	Program:	/corina/corina34_cracker 3.40 0067  02.08.2006

@<TRIPOS>MOLECULE
ASD02198250
  47   49    0    0    0
SMALL
NO_CHARGES


@<TRIPOS>ATOM
   1 C1            -0.0166     1.3753     0.0096 C.2     
   2 C2             0.0021    -0.0041     0.0020 C.2     
   3 C3            -1.1878    -0.8008     0.0083 C.1     
   4 S4             1.5675     2.0054    -0.0021 S.3     
   5 C5             2.2772     0.3990    -0.0175 C.2     
   6 C6             1.2824    -0.5520    -0.0132 C.2     
   7 C7             3.6579     0.1249    -0.0322 C.2     
   8 C8             4.6308     1.2351    -0.0350 C.2     
   9 O9             4.0505    -1.0301    -0.0426 O.2     
  10 N10            1.5294    -1.9154    -0.0224 N.pl3   
  11 N11           -1.1593     2.1393     0.0194 N.pl3   
  12 C12           -1.0630     3.6011     0.0268 C.3     
  13 C13           -2.3370     4.1992    -0.5733 C.3     
  14 O14            4.3523     2.5520    -0.0242 O.3     
  15 N15           -2.1317    -1.4328     0.0134 N.1     
  16 N16            5.3580     3.2224    -0.0300 N.2     
  17 C17            6.4373     2.4802    -0.0451 C.2     
  18 C18            5.9935     1.1303    -0.0430 C.2     
  19 C19            7.8437     2.9548    -0.0567 C.ar    
  20 C20            8.1205     4.3204    -0.0514 C.ar    
  21 C21            8.8909     2.0362    -0.0672 C.ar    
  22 C22           10.1973     2.4815    -0.0775 C.ar    
  23 C23           10.4684     3.8387    -0.0770 C.ar    
  24 C24            9.4305     4.7568    -0.0618 C.ar    
  25 C25           -3.5291     3.8674     0.3266 C.3     
  26 Cl26           9.7776     6.4578    -0.0619 Cl      
  27 Cl27          12.1136     4.3926    -0.0888 Cl      
  28 C28           -0.8970     4.0939     1.4658 C.3     
  29 C29           -2.1860     5.7179    -0.6805 C.3     
  30 H30            2.4424    -2.2428    -0.0326 H       
  31 H31            0.7893    -2.5424    -0.0187 H       
  32 H32           -2.0294     1.7105     0.0213 H       
  33 H33           -0.2021     3.9115    -0.5652 H       
  34 H34           -2.5029     3.7796    -1.5655 H       
  35 H35            6.5928     0.2318    -0.0525 H       
  36 H36            7.3118     5.0362    -0.0396 H       
  37 H37            8.6809     0.9768    -0.0668 H       
  38 H38           11.0094     1.7697    -0.0856 H       
  39 H39           -4.4367     4.2935    -0.1010 H       
  40 H40           -3.6367     2.7854     0.4030 H       
  41 H41           -3.3632     4.2870     1.3188 H       
  42 H42           -1.7579     3.7835     2.0578 H       
  43 H43            0.0106     3.6678     1.8933 H       
  44 H44           -0.8254     5.1815     1.4713 H       
  45 H45           -1.3368     5.9542    -1.3216 H       
  46 H46           -3.0936     6.1440    -1.1080 H       
  47 H47           -2.0201     6.1375     0.3117 H       
@<TRIPOS>BOND
   1    1    2 2
   2    1    4 1
   3    1   11 1
   4    2    3 1
   5    2    6 1
   6    3   15 3
   7    4    5 1
   8    5    6 2
   9    5    7 1
  10    6   10 1
  11    7    8 1
  12    7    9 2
  13    8   14 1
  14    8   18 2
  15   10   30 1
  16   10   31 1
  17   11   12 1
  18   11   32 1
  19   12   13 1
  20   12   28 1
  21   12   33 1
  22   13   25 1
  23   13   29 1
  24   13   34 1
  25   14   16 1
  26   16   17 2
  27   17   18 1
  28   17   19 1
  29   18   35 1
  30   19   20 ar
  31   19   21 ar
  32   20   24 ar
  33   20   36 1
  34   21   22 ar
  35   21   37 1
  36   22   23 ar
  37   22   38 1
  38   23   24 ar
  39   23   27 1
  40   24   26 1
  41   25   39 1
  42   25   40 1
  43   25   41 1
  44   28   42 1
  45   28   43 1
  46   28   44 1
  47   29   45 1
  48   29   46 1
  49   29   47 1

#	End of record

