#	Name: ASD01140063
#	Creating user name:	WinNT
#	Creation time:	15. 06. 2019 18:59

#	Modifying user name:	WinNT
#	Modification time:	15. 06. 2019 18:59

#	Program:	/corina/corina34_cracker 3.40 0067  02.08.2006

@<TRIPOS>MOLECULE
ASD01140063
  67   70    0    0    0
SMALL
NO_CHARGES


@<TRIPOS>ATOM
   1 C1             0.0427     3.2785    -1.1089 C.3     
   2 C2            -0.3428     1.7996    -1.1353 C.3     
   3 C3             0.0754     1.1226     0.1721 C.3     
   4 C4             1.5844     1.2777     0.3638 C.3     
   5 C5             1.9603     2.7561     0.4217 C.3     
   6 C6             1.5475     3.4332    -0.8844 C.3     
   7 C7             2.0374     0.5428     1.6225 C.3     
   8 C8             3.5556     0.6845     1.7920 C.3     
   9 C9             4.1042     1.4986     0.6209 C.3     
  10 C10            3.4745     2.8903     0.6375 C.3     
  11 C11            5.5953     1.5607     0.5882 C.3     
  12 C12            6.1578     2.9809     0.8108 C.3     
  13 C13            5.6361     3.9083    -0.2561 C.3     
  14 C14            4.1099     3.8109    -0.3880 C.3     
  15 C15            6.3977     0.7582     1.6225 C.3     
  16 C16            7.8400     1.2729     1.3288 C.3     
  17 C17            7.6752     2.6964     0.7387 C.3     
  18 C18           -1.8607     1.6764    -1.3023 C.3     
  19 C19            1.2596     3.4454     1.5967 C.3     
  20 C20            5.8943     3.5292     2.2113 C.3     
  21 C21            8.4179     3.7026     1.5743 C.2     
  22 C22            8.8655     5.0056     0.9637 C.3     
  23 O23            8.6555     3.4663     2.7345 O.2     
  24 H24            2.0758     0.8209    -0.5054 H       
  25 O25            0.3039     1.1557    -2.2355 O.3     
  26 C26           -2.2851     2.3405    -2.6137 C.3     
  27 C27           -3.7782     2.2193    -2.7780 C.2     
  28 C28           -4.5053     3.2920    -2.9699 C.2     
  29 H29           -0.2164     3.7264    -2.0756 H       
  30 H30           -0.5175     3.7947    -0.3339 H       
  31 H31           -0.4692     1.5514     1.0065 H       
  32 H32           -0.1646     0.0556     0.1089 H       
  33 H33            2.0825     2.9752    -1.7177 H       
  34 H34            1.7944     4.4953    -0.8383 H       
  35 H35            1.5294     0.9318     2.5007 H       
  36 H36            1.7935    -0.5202     1.5208 H       
  37 H37            3.7712     1.1958     2.7291 H       
  38 H38            4.0141    -0.3041     1.7976 H       
  39 H39            3.7789     0.9927    -0.3093 H       
  40 H40            3.5683     3.3267     1.6366 H       
  41 H41            5.9305     1.2156    -0.4175 H       
  42 H42            5.9148     4.9428    -0.0139 H       
  43 H43            6.1011     3.6576    -1.2198 H       
  44 H44            3.8692     3.4517    -1.3976 H       
  45 H45            3.6812     4.8167    -0.2865 H       
  46 H46            6.0982     0.9685     2.6387 H       
  47 H47            6.3331    -0.3107     1.4098 H       
  48 H48            8.4135     1.3131     2.2525 H       
  49 H49            8.3244     0.6205     0.6053 H       
  50 H50            8.0030     2.7260    -0.2950 H       
  51 H51           -2.1398     0.6229    -1.3216 H       
  52 H52           -2.3593     2.1691    -0.4676 H       
  53 H53            1.5599     2.9681     2.5295 H       
  54 H54            1.5407     4.4982     1.6204 H       
  55 H55            0.1796     3.3602     1.4763 H       
  56 H56            6.4777     2.9643     2.9383 H       
  57 H57            6.1833     4.5794     2.2506 H       
  58 H58            4.8337     3.4352     2.4446 H       
  59 H59            7.9964     5.5545     0.6012 H       
  60 H60            9.3832     5.6006     1.7161 H       
  61 H61            9.5408     4.8042     0.1321 H       
  62 H62            0.0727     1.5252    -3.0987 H       
  63 H63           -2.0060     3.3940    -2.5944 H       
  64 H64           -1.7866     1.8479    -3.4485 H       
  65 H65           -4.2489     1.2481    -2.7374 H       
  66 H66           -4.0346     4.2632    -3.0105 H       
  67 H67           -5.5753     3.2052    -3.0876 H       
@<TRIPOS>BOND
   1    1    2 1
   2    1    6 1
   3    1   29 1
   4    1   30 1
   5    2    3 1
   6    2   25 1
   7    2   18 1
   8    3    4 1
   9    3   31 1
  10    3   32 1
  11    4    5 1
  12    4    7 1
  13    4   24 1
  14    5    6 1
  15    5   19 1
  16    5   10 1
  17    6   33 1
  18    6   34 1
  19    7    8 1
  20    7   35 1
  21    7   36 1
  22    8    9 1
  23    8   37 1
  24    8   38 1
  25    9   10 1
  26    9   11 1
  27    9   39 1
  28   10   14 1
  29   10   40 1
  30   11   12 1
  31   11   15 1
  32   11   41 1
  33   12   13 1
  34   12   20 1
  35   12   17 1
  36   13   14 1
  37   13   42 1
  38   13   43 1
  39   14   44 1
  40   14   45 1
  41   15   16 1
  42   15   46 1
  43   15   47 1
  44   16   17 1
  45   16   48 1
  46   16   49 1
  47   17   21 1
  48   17   50 1
  49   18   26 1
  50   18   51 1
  51   18   52 1
  52   19   53 1
  53   19   54 1
  54   19   55 1
  55   20   56 1
  56   20   57 1
  57   20   58 1
  58   21   22 1
  59   21   23 2
  60   22   59 1
  61   22   60 1
  62   22   61 1
  63   25   62 1
  64   26   27 1
  65   26   63 1
  66   26   64 1
  67   27   28 2
  68   27   65 1
  69   28   66 1
  70   28   67 1

#	End of record

