#	Name: ASD01140106
#	Creating user name:	WinNT
#	Creation time:	15. 06. 2019 18:59

#	Modifying user name:	WinNT
#	Modification time:	15. 06. 2019 18:59

#	Program:	/corina/corina34_cracker 3.40 0067  02.08.2006

@<TRIPOS>MOLECULE
ASD01140106
  48   49    0    0    0
SMALL
NO_CHARGES


@<TRIPOS>ATOM
   1 C1             0.0420     1.6543     0.0949 C.3     
   2 C2             0.0111     0.1125     0.1638 C.3     
   3 C3             1.3917    -0.2894    -0.4005 C.3     
   4 C4             2.0637     1.0253    -0.7404 C.2     
   5 O5             1.4534     1.9999    -0.0416 O.3     
   6 O6             2.9871     1.1728    -1.5055 O.2     
   7 N7            -1.0660    -0.4219    -0.6731 N.am    
   8 C8             2.2007    -1.0445     0.6561 C.3     
   9 C9             1.2255    -1.1444    -1.6584 C.3     
  10 C10           -2.3109    -0.5454    -0.1717 C.2     
  11 O11           -3.3008    -1.0365    -0.9409 O.3     
  12 O12           -2.5399    -0.2136     0.9746 O.2     
  13 C13           -4.6161    -1.1415    -0.3350 C.3     
  14 C14           -5.5878    -1.7071    -1.3385 C.ar    
  15 C15            1.4914    -2.3557     1.0006 C.3     
  16 C16            2.3526    -3.1603     1.9762 C.3     
  17 C17            2.5956    -1.6460    -2.1189 C.3     
  18 C18            2.4354    -2.4574    -3.4061 C.3     
  19 C19           -5.7734    -3.0741    -1.4262 C.ar    
  20 C20           -6.6647    -3.5929    -2.3467 C.ar    
  21 C21           -7.3706    -2.7447    -3.1792 C.ar    
  22 C22           -7.1856    -1.3776    -3.0909 C.ar    
  23 C23           -6.2976    -0.8586    -2.1674 C.ar    
  24 H24           -0.5193     2.0059    -0.7708 H       
  25 H25           -0.3657     2.0824     1.0107 H       
  26 H26           -0.0969    -0.2250     1.1946 H       
  27 H27           -0.8832    -0.6867    -1.5882 H       
  28 H28            3.1952    -1.2609     0.2661 H       
  29 H29            2.2877    -0.4318     1.5534 H       
  30 H30            0.5825    -1.9962    -1.4364 H       
  31 H31            0.7739    -0.5444    -2.4484 H       
  32 H32           -4.5651    -1.7997     0.5323 H       
  33 H33           -4.9517    -0.1529    -0.0216 H       
  34 H34            0.5279    -2.1375     1.4612 H       
  35 H35            1.3361    -2.9348     0.0903 H       
  36 H36            3.3161    -3.3785     1.5156 H       
  37 H37            2.5079    -2.5811     2.8865 H       
  38 H38            1.8474    -4.0944     2.2217 H       
  39 H39            3.2504    -0.7947    -2.3052 H       
  40 H40            3.0311    -2.2765    -1.3437 H       
  41 H41            2.0000    -1.8269    -4.1813 H       
  42 H42            3.4116    -2.8148    -3.7341 H       
  43 H43            1.7807    -3.3087    -3.2198 H       
  44 H44           -5.2219    -3.7368    -0.7758 H       
  45 H45           -6.8092    -4.6610    -2.4157 H       
  46 H46           -8.0664    -3.1501    -3.8989 H       
  47 H47           -7.7369    -0.7149    -3.7415 H       
  48 H48           -6.1531     0.2095    -2.0984 H       
@<TRIPOS>BOND
   1    1    2 1
   2    1    5 1
   3    1   24 1
   4    1   25 1
   5    2    3 1
   6    2    7 1
   7    2   26 1
   8    3    4 1
   9    3    9 1
  10    3    8 1
  11    4    5 1
  12    4    6 2
  13    7   10 am
  14    7   27 1
  15    8   15 1
  16    8   28 1
  17    8   29 1
  18    9   17 1
  19    9   30 1
  20    9   31 1
  21   10   11 1
  22   10   12 2
  23   11   13 1
  24   13   14 1
  25   13   32 1
  26   13   33 1
  27   14   19 ar
  28   14   23 ar
  29   15   16 1
  30   15   34 1
  31   15   35 1
  32   16   36 1
  33   16   37 1
  34   16   38 1
  35   17   18 1
  36   17   39 1
  37   17   40 1
  38   18   41 1
  39   18   42 1
  40   18   43 1
  41   19   20 ar
  42   19   44 1
  43   20   21 ar
  44   20   45 1
  45   21   22 ar
  46   21   46 1
  47   22   23 ar
  48   22   47 1
  49   23   48 1

#	End of record

