#	Name: ASD02038036
#	Creating user name:	WinNT
#	Creation time:	15. 06. 2019 20:16

#	Modifying user name:	WinNT
#	Modification time:	15. 06. 2019 20:16

#	Program:	/corina/corina34_cracker 3.40 0067  02.08.2006

@<TRIPOS>MOLECULE
ASD02038036
  43   45    0    0    0
SMALL
NO_CHARGES


@<TRIPOS>ATOM
   1 N1            -0.0178     1.4608     0.0101 N.am    
   2 N2             1.1218     3.4981     0.0101 N.am    
   3 C3             1.1401     2.1505     0.0027 C.2     
   4 C4             1.0737     6.9118    -0.1706 C.3     
   5 O5             0.1581     7.6825    -0.9514 O.3     
   6 C6             0.0243     8.9964    -0.6275 C.ar    
   7 C7            -0.8475     9.8022    -1.3447 C.ar    
   8 C8             0.7555     9.5295     0.4236 C.ar    
   9 C9             0.6197    10.8641     0.7526 C.ar    
  10 C10           -0.2475    11.6713     0.0315 C.ar    
  11 C11           -0.9833    11.1369    -1.0157 C.ar    
  12 O12            2.2012     1.5569    -0.0106 O.2     
  13 O13           -0.3816    12.9852     0.3557 O.3     
  14 C14            2.1279     4.5708     0.0063 C.3     
  15 C15            1.0888     5.4689    -0.6792 C.3     
  16 C16            0.0870     4.5431     0.0190 C.3     
  17 C17            0.0021    -0.0041     0.0020 C.3     
  18 C18           -1.4117    -0.5257     0.0127 C.ar    
  19 C19           -2.0714    -0.7584    -1.1797 C.ar    
  20 C20           -2.0465    -0.7766     1.2149 C.ar    
  21 C21           -3.3430    -1.2555     1.2253 C.ar    
  22 C22           -4.0057    -1.4832     0.0324 C.ar    
  23 C23           -3.3680    -1.2368    -1.1705 C.ar    
  24 Cl24          -5.6339    -2.0851     0.0447 Cl      
  25 H25           -0.8643     1.9343     0.0247 H       
  26 H26            2.0732     7.3380    -0.2571 H       
  27 H27            0.7619     6.9258     0.8737 H       
  28 H28           -1.4199     9.3862    -2.1606 H       
  29 H29            1.4308     8.9009     0.9851 H       
  30 H30            1.1885    11.2790     1.5716 H       
  31 H31           -1.6583    11.7655    -1.5775 H       
  32 H32            0.2336    13.5695    -0.1083 H       
  33 H33            2.4041     4.9104     1.0045 H       
  34 H34            2.9931     4.3522    -0.6196 H       
  35 H35            1.0800     5.3927    -1.7665 H       
  36 H36           -0.7814     4.3020    -0.5940 H       
  37 H37           -0.1830     4.8732     1.0221 H       
  38 H38            0.5123    -0.3556    -0.8948 H       
  39 H39            0.5293    -0.3651     0.8851 H       
  40 H40           -1.5735    -0.5660    -2.1186 H       
  41 H41           -1.5291    -0.5988     2.1460 H       
  42 H42           -3.8386    -1.4521     2.1645 H       
  43 H43           -3.8849    -1.4140    -2.1021 H       
@<TRIPOS>BOND
   1    1   17 1
   2    1    3 am
   3    1   25 1
   4    2    3 am
   5    2   14 1
   6    2   16 1
   7    3   12 2
   8    4    5 1
   9    4   15 1
  10    4   26 1
  11    4   27 1
  12    5    6 1
  13    6    7 ar
  14    6    8 ar
  15    7   11 ar
  16    7   28 1
  17    8    9 ar
  18    8   29 1
  19    9   10 ar
  20    9   30 1
  21   10   11 ar
  22   10   13 1
  23   11   31 1
  24   13   32 1
  25   14   15 1
  26   14   33 1
  27   14   34 1
  28   15   16 1
  29   15   35 1
  30   16   36 1
  31   16   37 1
  32   17   18 1
  33   17   38 1
  34   17   39 1
  35   18   19 ar
  36   18   20 ar
  37   19   23 ar
  38   19   40 1
  39   20   21 ar
  40   20   41 1
  41   21   22 ar
  42   21   42 1
  43   22   23 ar
  44   22   24 1
  45   23   43 1

#	End of record

