#	Name: ASD04910018
#	Creating user name:	WinNT
#	Creation time:	15. 06. 2019 20:55

#	Modifying user name:	WinNT
#	Modification time:	15. 06. 2019 20:55

#	Program:	/corina/corina34_cracker 3.40 0067  02.08.2006

@<TRIPOS>MOLECULE
ASD04910018
  55   57    0    0    0
SMALL
NO_CHARGES


@<TRIPOS>ATOM
   1 C1            -0.2693     1.4347     0.2405 C.2     
   2 C2            -0.2089    -0.0707     0.2044 C.3     
   3 C3             1.2520    -0.5212     0.1428 C.3     
   4 O4             0.7514     2.0809     0.2192 O.2     
   5 O5            -1.4571     2.0577     0.2909 O.3     
   6 C6             2.5032    -2.6100     0.0515 C.2     
   7 C7             2.5624    -4.0869     0.0161 C.ar    
   8 C8             3.7958    -4.7377    -0.0421 C.ar    
   9 C9             3.8440    -6.1161    -0.0744 C.ar    
  10 C10            2.6733    -6.8531    -0.0498 C.ar    
  11 C11            1.4474    -6.2141     0.0078 C.ar    
  12 C12            1.3854    -4.8365     0.0465 C.ar    
  13 O13            3.5300    -1.9599     0.0300 O.2     
  14 N14            1.3106    -1.9846     0.1077 N.am    
  15 C15            2.7337    -8.3584    -0.0864 C.3     
  16 C16            2.5543    -8.9106     1.3292 C.3     
  17 C17            2.7395   -10.4292     1.3115 C.3     
  18 O18            1.6915    -8.8566    -0.9276 O.3     
  19 C19            1.9543    -9.9902    -1.6303 C.ar    
  20 C20            3.2167   -10.5632    -1.5753 C.ar    
  21 C21            3.4841   -11.7148    -2.2884 C.ar    
  22 C22            2.4894   -12.2995    -3.0607 C.ar    
  23 C23            1.2263   -11.7258    -3.1154 C.ar    
  24 C24            0.9585   -10.5771    -2.3977 C.ar    
  25 N25            2.7607   -13.4694    -3.7858 N.pl3   
  26 N26            3.9835   -14.1519    -3.8223 N.2     
  27 C27            3.8480   -15.1928    -4.6043 C.2     
  28 C28            2.5365   -15.2072    -5.0908 C.2     
  29 C29            1.8866   -14.1410    -4.5686 C.2     
  30 C30            1.9490   -16.2326    -6.0260 C.3     
  31 F31            2.9223   -17.1862    -6.3432 F       
  32 F32            0.8642   -16.8618    -5.4061 F       
  33 F33            1.5154   -15.6016    -7.1969 F       
  34 H34           -0.6761    -0.4747     1.1025 H       
  35 H35           -0.7388    -0.4345    -0.6759 H       
  36 H36            1.7192    -0.1172    -0.7553 H       
  37 H37            1.7819    -0.1573     1.0231 H       
  38 H38           -1.4453     3.0244     0.3125 H       
  39 H39            4.7103    -4.1635    -0.0621 H       
  40 H40            4.7977    -6.6209    -0.1194 H       
  41 H41            0.5373    -6.7952     0.0268 H       
  42 H42            0.4281    -4.3390     0.0959 H       
  43 H43            0.4912    -2.5034     0.1248 H       
  44 H44            3.7001    -8.6739    -0.4797 H       
  45 H45            3.2952    -8.4619     1.9908 H       
  46 H46            1.5536    -8.6708     1.6886 H       
  47 H47            3.7402   -10.6691     0.9521 H       
  48 H48            2.6117   -10.8226     2.3200 H       
  49 H49            1.9985   -10.8779     0.6499 H       
  50 H50            3.9905   -10.1081    -0.9749 H       
  51 H51            4.4669   -12.1606    -2.2459 H       
  52 H52            0.4523   -12.1802    -3.7159 H       
  53 H53           -0.0253   -10.1332    -2.4366 H       
  54 H54            4.6166   -15.9158    -4.8346 H       
  55 H55            0.8557   -13.8732    -4.7474 H       
@<TRIPOS>BOND
   1    1    2 1
   2    1    4 2
   3    1    5 1
   4    2    3 1
   5    2   34 1
   6    2   35 1
   7    3   14 1
   8    3   36 1
   9    3   37 1
  10    5   38 1
  11    6    7 1
  12    6   13 2
  13    6   14 am
  14    7    8 ar
  15    7   12 ar
  16    8    9 ar
  17    8   39 1
  18    9   10 ar
  19    9   40 1
  20   10   11 ar
  21   10   15 1
  22   11   12 ar
  23   11   41 1
  24   12   42 1
  25   14   43 1
  26   15   16 1
  27   15   18 1
  28   15   44 1
  29   16   17 1
  30   16   45 1
  31   16   46 1
  32   17   47 1
  33   17   48 1
  34   17   49 1
  35   18   19 1
  36   19   20 ar
  37   19   24 ar
  38   20   21 ar
  39   20   50 1
  40   21   22 ar
  41   21   51 1
  42   22   23 ar
  43   22   25 1
  44   23   24 ar
  45   23   52 1
  46   24   53 1
  47   25   26 1
  48   25   29 1
  49   26   27 2
  50   27   28 1
  51   27   54 1
  52   28   29 2
  53   28   30 1
  54   29   55 1
  55   30   31 1
  56   30   32 1
  57   30   33 1

#	End of record

