#	Name: ASD00170590
#	Creating user name:	WinNT
#	Creation time:	15. 06. 2019 18:32

#	Modifying user name:	WinNT
#	Modification time:	15. 06. 2019 18:32

#	Program:	/corina/corina34_cracker 3.40 0067  02.08.2006

@<TRIPOS>MOLECULE
ASD00170590
  28   30    0    0    0
SMALL
NO_CHARGES


@<TRIPOS>ATOM
   1 C1            -0.0163     1.2137    -0.0139 C.2     
   2 O2             0.4974     0.7948     1.0082 O.2     
   3 C3             0.6473     0.9970    -1.3174 C.ar    
   4 C4             1.9103     0.4042    -1.3709 C.ar    
   5 C5             2.5242     0.2047    -2.5894 C.ar    
   6 C6             1.8906     0.5916    -3.7588 C.ar    
   7 C7             0.6378     1.1806    -3.7121 C.ar    
   8 C8             0.0110     1.3792    -2.4999 C.ar    
   9 Cl9            2.6699     0.3378    -5.2891 Cl      
  10 C10           -3.6146     2.1026     0.0387 C.2     
  11 C11           -2.5971     1.2409    -0.0311 C.2     
  12 C12           -1.2912     1.9251     0.0476 C.2     
  13 C13           -1.3792     3.2803     0.1832 C.2     
  14 S14           -3.0619     3.7665     0.2163 S.3     
  15 C15           -2.9814    -0.2285    -0.1638 C.3     
  16 C16           -4.4145    -0.3578    -0.7106 C.3     
  17 S17           -5.1478     1.1998    -0.0852 S.3     
  18 N18           -0.3025     4.1399     0.2804 N.pl3   
  19 H19            2.4055     0.1028    -0.4597 H       
  20 H20            3.5011    -0.2538    -2.6321 H       
  21 H21            0.1488     1.4806    -4.6271 H       
  22 H22           -0.9678     1.8341    -2.4650 H       
  23 H23           -2.2892    -0.7221    -0.8460 H       
  24 H24           -2.9240    -0.7061     0.8143 H       
  25 H25           -4.4202    -0.3871    -1.8001 H       
  26 H26           -4.9197    -1.2282    -0.2918 H       
  27 H27            0.5984     3.7846     0.3346 H       
  28 H28           -0.4473     5.0989     0.2944 H       
@<TRIPOS>BOND
   1    1    2 2
   2    1    3 1
   3    1   12 1
   4    3    4 ar
   5    3    8 ar
   6    4    5 ar
   7    4   19 1
   8    5    6 ar
   9    5   20 1
  10    6    7 ar
  11    6    9 1
  12    7    8 ar
  13    7   21 1
  14    8   22 1
  15   10   11 2
  16   10   14 1
  17   10   17 1
  18   11   12 1
  19   11   15 1
  20   12   13 2
  21   13   14 1
  22   13   18 1
  23   15   16 1
  24   15   23 1
  25   15   24 1
  26   16   17 1
  27   16   25 1
  28   16   26 1
  29   18   27 1
  30   18   28 1

#	End of record

