#	Name: ASD01813589
#	Creating user name:	WinNT
#	Creation time:	15. 06. 2019 19:30

#	Modifying user name:	WinNT
#	Modification time:	15. 06. 2019 19:30

#	Program:	/corina/corina34_cracker 3.40 0067  02.08.2006

@<TRIPOS>MOLECULE
ASD01813589
  51   54    0    0    0
SMALL
NO_CHARGES


@<TRIPOS>ATOM
   1 C1            -0.0168     1.3825    -0.0433 C.ar    
   2 C2             0.0020    -0.0038    -0.0504 C.ar    
   3 C3             1.1975    -0.6932    -0.0475 C.ar    
   4 C4             2.4040     0.0044    -0.0379 C.ar    
   5 C5             2.3834     1.4096    -0.0312 C.ar    
   6 C6             1.1657     2.0946    -0.0338 C.ar    
   7 N7             3.6050    -0.6734    -0.0339 N.pl3   
   8 C8             4.7898    -0.0496    -0.0238 C.2     
   9 C9             4.8962     1.3266    -0.0161 C.2     
  10 C10            3.6660     2.1351    -0.0211 C.2     
  11 O11            3.7066     3.3531    -0.0152 O.2     
  12 C12            6.2155     1.9737    -0.0040 C.2     
  13 O13            6.3065     3.3187     0.0034 O.3     
  14 O14            7.2249     1.2962    -0.0008 O.2     
  15 C15            3.5837    -2.1382    -0.0406 C.3     
  16 C16            3.4403    -2.6321    -1.4571 C.ar    
  17 N17            2.2404    -2.7346    -1.9912 N.ar    
  18 C18            2.0668    -3.1641    -3.2344 C.ar    
  19 C19            3.1607    -3.5227    -4.0187 C.ar    
  20 C20            4.4335    -3.4249    -3.4830 C.ar    
  21 C21            4.5704    -2.9661    -2.1808 C.ar    
  22 F22            1.1984    -2.0441    -0.0536 F       
  23 F23            1.1457     3.4455    -0.0278 F       
  24 C24            0.6964    -3.2637    -3.7938 C.ar    
  25 C25            0.4965    -3.8112    -5.0598 C.ar    
  26 C26           -0.7796    -3.9029    -5.5793 C.ar    
  27 C27           -1.8619    -3.4530    -4.8477 C.ar    
  28 C28           -1.6722    -2.9055    -3.5842 C.ar    
  29 C29           -0.3943    -2.8156    -3.0528 C.ar    
  30 N30           -2.7687    -2.4509    -2.8478 N.am    
  31 S31           -4.1417    -3.3720    -2.7529 S.o2    
  32 O32           -5.0304    -2.5957    -1.9613 O.2     
  33 O33           -4.4478    -3.6850    -4.1048 O.2     
  34 C34           -3.6260    -4.8619    -1.8557 C.3     
  35 H35           -0.9606     1.9075    -0.0498 H       
  36 H36           -0.9295    -0.5504    -0.0579 H       
  37 H37            5.6921    -0.6430    -0.0212 H       
  38 H38            7.1957     3.6986     0.0112 H       
  39 H39            4.5134    -2.5171     0.3839 H       
  40 H40            2.7418    -2.4920     0.5545 H       
  41 H41            3.0179    -3.8725    -5.0305 H       
  42 H42            5.3006    -3.6961    -4.0669 H       
  43 H43            5.5497    -2.8780    -1.7339 H       
  44 H44            1.3401    -4.1636    -5.6348 H       
  45 H45           -0.9320    -4.3272    -6.5607 H       
  46 H46           -2.8579    -3.5266    -5.2588 H       
  47 H47           -0.2445    -2.3906    -2.0713 H       
  48 H48           -2.7260    -1.5957    -2.3920 H       
  49 H49           -3.2548    -4.5821    -0.8698 H       
  50 H50           -4.4779    -5.5331    -1.7461 H       
  51 H51           -2.8356    -5.3657    -2.4120 H       
@<TRIPOS>BOND
   1    1    2 ar
   2    1    6 ar
   3    1   35 1
   4    2    3 ar
   5    2   36 1
   6    3    4 ar
   7    3   22 1
   8    4    5 ar
   9    4    7 1
  10    5    6 ar
  11    5   10 1
  12    6   23 1
  13    7    8 1
  14    7   15 1
  15    8    9 2
  16    8   37 1
  17    9   10 1
  18    9   12 1
  19   10   11 2
  20   12   13 1
  21   12   14 2
  22   13   38 1
  23   15   16 1
  24   15   39 1
  25   15   40 1
  26   16   17 ar
  27   16   21 ar
  28   17   18 ar
  29   18   19 ar
  30   18   24 1
  31   19   20 ar
  32   19   41 1
  33   20   21 ar
  34   20   42 1
  35   21   43 1
  36   24   25 ar
  37   24   29 ar
  38   25   26 ar
  39   25   44 1
  40   26   27 ar
  41   26   45 1
  42   27   28 ar
  43   27   46 1
  44   28   29 ar
  45   28   30 1
  46   29   47 1
  47   30   31 am
  48   30   48 1
  49   31   32 2
  50   31   33 2
  51   31   34 1
  52   34   49 1
  53   34   50 1
  54   34   51 1

#	End of record

