#	Name: ASD09116047
#	Creating user name:	WinNT
#	Creation time:	15. 06. 2019 21:20

#	Modifying user name:	WinNT
#	Modification time:	15. 06. 2019 21:20

#	Program:	/corina/corina34_cracker 3.40 0067  02.08.2006

@<TRIPOS>MOLECULE
ASD09116047
  64   68    0    0    0
SMALL
NO_CHARGES


@<TRIPOS>ATOM
   1 C1            -0.0227     1.3301     0.1145 C.2     
   2 N2             0.0015    -0.0044     0.0181 N.2     
   3 N3             1.1988     1.7669     0.3072 N.2     
   4 N4             2.0374     0.6410     0.3330 N.pl3   
   5 C5             1.2379    -0.4356     0.1479 C.2     
   6 C6            -3.4452     2.1829    -0.7690 C.ar    
   7 C7            -2.4267     1.5345    -0.0828 C.ar    
   8 N8            -1.1626     2.1283     0.0194 N.pl3   
   9 C9            -4.6917     1.5976    -0.8694 C.ar    
  10 C10           -4.9271     0.3606    -0.2836 C.ar    
  11 C11           -3.9086    -0.2881     0.4022 C.ar    
  12 C12           -2.6620     0.2972     0.5026 C.ar    
  13 N13           -6.1909    -0.2326    -0.3850 N.3     
  14 C14           -6.2198    -1.5311     0.3024 C.3     
  15 C15           -6.5946    -0.3750    -1.7908 C.3     
  16 C16           -8.0105    -0.9523    -1.8561 C.3     
  17 N17           -8.0394    -2.2509    -1.1688 N.3     
  18 C18           -7.6357    -2.1085     0.2371 C.3     
  19 C19           -9.3657    -2.8734    -1.2751 C.3     
  20 N20            1.6478    -1.7545     0.1032 N.pl3   
  21 C21            3.4222     0.6333     0.5133 C.ar    
  22 C22            4.1642     1.7593     0.1779 C.ar    
  23 N23            4.0123    -0.4460     1.0073 N.ar    
  24 C24            5.3134    -0.4901     1.1882 C.ar    
  25 C25            6.1135     0.5980     0.8802 C.ar    
  26 C26            5.5377     1.7447     0.3650 C.ar    
  27 C27            6.0021    -1.7205     1.7186 C.3     
  28 C28            6.2521    -1.6454     3.1901 C.3     
  29 C29            7.4282    -0.8218     3.6758 C.3     
  30 C30            7.1048     0.6809     3.5846 C.3     
  31 C31            7.9305     1.2720     2.4094 C.3     
  32 C32            7.5931     0.5023     1.1338 C.3     
  33 H33           -3.2634     3.1471    -1.2205 H       
  34 H34           -1.0798     3.0948     0.0240 H       
  35 H35           -5.4837     2.1018    -1.4030 H       
  36 H36           -4.0919    -1.2497     0.8583 H       
  37 H37           -1.8700    -0.2072     1.0359 H       
  38 H38           -5.5251    -2.2157    -0.1842 H       
  39 H39           -5.9292    -1.3976     1.3445 H       
  40 H40           -6.5774     0.6015    -2.2748 H       
  41 H41           -5.9042    -1.0464    -2.3012 H       
  42 H42           -8.7052    -0.2677    -1.3695 H       
  43 H43           -8.3010    -1.0859    -2.8982 H       
  44 H44           -7.6529    -3.0850     0.7211 H       
  45 H45           -8.3261    -1.4371     0.7475 H       
  46 H46           -9.6111    -3.0286    -2.3257 H       
  47 H47           -9.3593    -3.8329    -0.7580 H       
  48 H48          -10.1110    -2.2207    -0.8205 H       
  49 H49            2.5865    -1.9746     0.2098 H       
  50 H50            0.9969    -2.4603    -0.0348 H       
  51 H51            3.6768     2.6352    -0.2241 H       
  52 H52            6.1417     2.6034     0.1114 H       
  53 H53            5.3794    -2.5906     1.5105 H       
  54 H54            6.9557    -1.8403     1.2044 H       
  55 H55            5.3524    -1.2469     3.6591 H       
  56 H56            6.3872    -2.6634     3.5556 H       
  57 H57            7.6470    -1.0813     4.7115 H       
  58 H58            8.3005    -1.0408     3.0601 H       
  59 H59            6.0404     0.8187     3.3943 H       
  60 H60            7.3813     1.1754     4.5158 H       
  61 H61            7.6781     2.3243     2.2786 H       
  62 H62            8.9945     1.1736     2.6247 H       
  63 H63            7.8757    -0.5437     1.2534 H       
  64 H64            8.1359     0.9341     0.2929 H       
@<TRIPOS>BOND
   1    1    2 1
   2    1    3 2
   3    1    8 1
   4    2    5 2
   5    3    4 1
   6    4    5 1
   7    4   21 1
   8    5   20 1
   9    6    7 ar
  10    6    9 ar
  11    6   33 1
  12    7    8 1
  13    7   12 ar
  14    8   34 1
  15    9   10 ar
  16    9   35 1
  17   10   11 ar
  18   10   13 1
  19   11   12 ar
  20   11   36 1
  21   12   37 1
  22   13   14 1
  23   13   15 1
  24   14   18 1
  25   14   38 1
  26   14   39 1
  27   15   16 1
  28   15   40 1
  29   15   41 1
  30   16   17 1
  31   16   42 1
  32   16   43 1
  33   17   18 1
  34   17   19 1
  35   18   44 1
  36   18   45 1
  37   19   46 1
  38   19   47 1
  39   19   48 1
  40   20   49 1
  41   20   50 1
  42   21   22 ar
  43   21   23 ar
  44   22   26 ar
  45   22   51 1
  46   23   24 ar
  47   24   25 ar
  48   24   27 1
  49   25   26 ar
  50   25   32 1
  51   26   52 1
  52   27   28 1
  53   27   53 1
  54   27   54 1
  55   28   29 1
  56   28   55 1
  57   28   56 1
  58   29   30 1
  59   29   57 1
  60   29   58 1
  61   30   31 1
  62   30   59 1
  63   30   60 1
  64   31   32 1
  65   31   61 1
  66   31   62 1
  67   32   63 1
  68   32   64 1

#	End of record

