#	Name: ASD04590807
#	Creating user name:	WinNT
#	Creation time:	15. 06. 2019 20:51

#	Modifying user name:	WinNT
#	Modification time:	15. 06. 2019 20:51

#	Program:	/corina/corina34_cracker 3.40 0067  02.08.2006

@<TRIPOS>MOLECULE
ASD04590807
  59   64    0    0    0
SMALL
NO_CHARGES


@<TRIPOS>ATOM
   1 C1            -0.0156     1.3195     0.0021 C.ar    
   2 N2             0.0030    -0.0035     0.0021 N.ar    
   3 C3             1.1568    -0.6642    -0.0189 C.ar    
   4 C4             2.3553     0.0773    -0.0413 C.ar    
   5 C5             2.2854     1.4669    -0.0402 C.ar    
   6 N6             1.0955     2.0445    -0.0187 N.ar    
   7 N7             1.4735    -1.9997    -0.0239 N.pl3   
   8 C8             3.4500    -0.9013    -0.0607 C.ar    
   9 C9             2.8478    -2.1707    -0.0489 C.ar    
  10 C10            3.6686    -3.2943    -0.0632 C.ar    
  11 C11            4.8426    -0.8187    -0.0858 C.ar    
  12 C12            5.5767    -1.9847    -0.0981 C.ar    
  13 N13            4.9812    -3.1649    -0.0869 N.ar    
  14 N14           -1.2380     1.9706     0.0185 N.pl3   
  15 C15           -1.2868     3.3603     0.1316 C.ar    
  16 C16           -2.5090     4.0273     0.0364 C.ar    
  17 C17           -2.5071     5.4058     0.1554 C.ar    
  18 C18           -1.2827     6.0430     0.3631 C.ar    
  19 N19           -0.1726     5.3273     0.4401 N.ar    
  20 N20           -0.1754     4.0481     0.3348 N.ar    
  21 N21           -1.2297     7.4295     0.4887 N.3     
  22 C22            0.1508     7.8867     0.7005 C.3     
  23 C23            0.1566     9.4024     0.9125 C.3     
  24 N24           -0.4392    10.0605    -0.2587 N.3     
  25 C25           -1.8197     9.6033    -0.4705 C.3     
  26 C26           -1.8254     8.0875    -0.6825 C.3     
  27 C27            1.5965     9.8872     1.0928 C.3     
  28 F28            3.1169    -4.5274    -0.0524 F       
  29 C29            0.4957    -3.0906    -0.0050 C.3     
  30 C30           -0.3713    -2.9993     1.2630 C.3     
  31 C31           -1.8279    -2.8172     0.7887 C.3     
  32 C32           -1.8373    -3.4060    -0.6439 C.3     
  33 C33           -0.4642    -2.9607    -1.2056 C.3     
  34 H34            3.1859     2.0629    -0.0570 H       
  35 H35            5.3363     0.1419    -0.0958 H       
  36 H36            6.6553    -1.9337    -0.1175 H       
  37 H37           -2.0602     1.4603    -0.0486 H       
  38 H38           -3.4283     3.4840    -0.1255 H       
  39 H39           -3.4247     5.9714     0.0892 H       
  40 H40            0.5658     7.3949     1.5803 H       
  41 H41            0.7539     7.6393    -0.1731 H       
  42 H42           -0.4241     9.6475     1.8018 H       
  43 H43           -0.4008    11.0646    -0.1678 H       
  44 H44           -2.4228     9.8506     0.4031 H       
  45 H45           -2.2347    10.0951    -1.3503 H       
  46 H46           -1.2448     7.8425    -1.5718 H       
  47 H47           -2.8513     7.7422    -0.8110 H       
  48 H48            2.1763     9.6427     0.2028 H       
  49 H49            1.6002    10.9667     1.2437 H       
  50 H50            2.0387     9.3975     1.9604 H       
  51 H51            1.0085    -4.0518    -0.0383 H       
  52 H52           -0.2799    -3.9167     1.8446 H       
  53 H53           -0.0646    -2.1435     1.8642 H       
  54 H54           -2.5109    -3.3706     1.4331 H       
  55 H55           -2.0931    -1.7602     0.7684 H       
  56 H56           -1.9082    -4.4933    -0.6142 H       
  57 H57           -2.6512    -2.9807    -1.2310 H       
  58 H58           -0.5093    -1.9268    -1.5479 H       
  59 H59           -0.1522    -3.6188    -2.0165 H       
@<TRIPOS>BOND
   1    1    2 ar
   2    1    6 ar
   3    1   14 1
   4    2    3 ar
   5    3    4 ar
   6    3    7 1
   7    4    5 ar
   8    4    8 1
   9    5    6 ar
  10    5   34 1
  11    7    9 1
  12    7   29 1
  13    8    9 ar
  14    8   11 ar
  15    9   10 ar
  16   10   13 ar
  17   10   28 1
  18   11   12 ar
  19   11   35 1
  20   12   13 ar
  21   12   36 1
  22   14   15 1
  23   14   37 1
  24   15   16 ar
  25   15   20 ar
  26   16   17 ar
  27   16   38 1
  28   17   18 ar
  29   17   39 1
  30   18   19 ar
  31   18   21 1
  32   19   20 ar
  33   21   22 1
  34   21   26 1
  35   22   23 1
  36   22   40 1
  37   22   41 1
  38   23   24 1
  39   23   27 1
  40   23   42 1
  41   24   25 1
  42   24   43 1
  43   25   26 1
  44   25   44 1
  45   25   45 1
  46   26   46 1
  47   26   47 1
  48   27   48 1
  49   27   49 1
  50   27   50 1
  51   29   30 1
  52   29   33 1
  53   29   51 1
  54   30   31 1
  55   30   52 1
  56   30   53 1
  57   31   32 1
  58   31   54 1
  59   31   55 1
  60   32   33 1
  61   32   56 1
  62   32   57 1
  63   33   58 1
  64   33   59 1

#	End of record

