#	Name: ASD09080140
#	Creating user name:	WinNT
#	Creation time:	15. 06. 2019 21:20

#	Modifying user name:	WinNT
#	Modification time:	15. 06. 2019 21:20

#	Program:	/corina/corina34_cracker 3.40 0067  02.08.2006

@<TRIPOS>MOLECULE
ASD09080140
  66   68    0    0    0
SMALL
NO_CHARGES


@<TRIPOS>ATOM
   1 C1            -0.5120     0.7008     1.2069 C.ar    
   2 C2            -0.4961    -0.6553     0.9304 C.ar    
   3 C3            -1.6570    -1.3006     0.5408 C.ar    
   4 C4            -2.8381    -0.5931     0.4265 C.ar    
   5 C5            -2.8593     0.7720     0.7041 C.ar    
   6 C6            -1.6892     1.4159     1.1010 C.ar    
   7 Cl7            0.9483     1.5030     1.6944 Cl      
   8 Cl8           -1.6287    -3.0015     0.1947 Cl      
   9 C9            -4.1252     1.5368     0.5824 C.ar    
  10 C10           -4.1468     2.9020     0.8599 C.ar    
  11 C11           -5.3268     3.6085     0.7446 C.ar    
  12 C12           -6.4866     2.9636     0.3543 C.ar    
  13 C13           -6.4710     1.6084     0.0780 C.ar    
  14 C14           -5.2953     0.8933     0.1845 C.ar    
  15 C15           -7.7720     3.7404     0.2302 C.3     
  16 C16           -7.9012     4.2887    -1.1924 C.3     
  17 N17           -8.0288     3.1749    -2.1354 N.am    
  18 C18           -9.1415     5.1798    -1.2848 C.3     
  19 C19           -9.3503     5.6143    -2.7368 C.3     
  20 O20          -10.5828     6.3289    -2.8477 O.3     
  21 C21           -9.0585     2.3123    -2.0242 C.2     
  22 C22           -9.1897     1.1666    -2.9942 C.3     
  23 O23           -9.8794     2.4583    -1.1434 O.2     
  24 O24          -10.3519     0.4002    -2.6718 O.3     
  25 C25          -10.5699    -0.7167    -3.5361 C.3     
  26 C26           -8.2126     6.5058    -3.1630 C.2     
  27 O27           -8.4154     7.6736    -3.3978 O.2     
  28 O28           -6.9738     6.0027    -3.2817 O.3     
  29 C29           -5.9269     6.9194    -3.6964 C.3     
  30 O30           -8.9603     6.3350    -0.4633 O.3     
  31 C31           -9.8378     7.9372     1.0896 C.ar    
  32 C32           -9.8168     9.2432     0.6369 C.ar    
  33 C33           -9.5228    10.2731     1.5108 C.ar    
  34 C34           -9.2504     9.9971     2.8377 C.ar    
  35 C35           -9.2723     8.6912     3.2906 C.ar    
  36 C36           -9.5649     7.6612     2.4164 C.ar    
  37 C37          -10.1644     6.8151     0.1383 C.3     
  38 H38            0.4253    -1.2118     1.0187 H       
  39 H39           -3.7433    -1.0974     0.1221 H       
  40 H40           -1.7008     2.4738     1.3176 H       
  41 H41           -3.2419     3.4064     1.1651 H       
  42 H42           -5.3448     4.6667     0.9598 H       
  43 H43           -7.3796     1.1097    -0.2257 H       
  44 H44           -5.2842    -0.1648    -0.0315 H       
  45 H45           -8.6154     3.0839     0.4445 H       
  46 H46           -7.7664     4.5680     0.9395 H       
  47 H47           -7.0147     4.8733    -1.4383 H       
  48 H48           -7.3723     3.0582    -2.8398 H       
  49 H49          -10.0145     4.6240    -0.9427 H       
  50 H50           -9.3819     4.7337    -3.3786 H       
  51 H51          -11.3526     5.8371    -2.5303 H       
  52 H52           -9.2817     1.5572    -4.0076 H       
  53 H53           -8.3061     0.5317    -2.9284 H       
  54 H54          -11.4704    -1.2464    -3.2252 H       
  55 H55          -10.6905    -0.3651    -4.5607 H       
  56 H56           -9.7149    -1.3906    -3.4815 H       
  57 H57           -6.1711     7.3307    -4.6759 H       
  58 H58           -5.8457     7.7298    -2.9720 H       
  59 H59           -4.9781     6.3859    -3.7527 H       
  60 H60          -10.0297     9.4588    -0.3998 H       
  61 H61           -9.5057    11.2933     1.1569 H       
  62 H62           -9.0200    10.8016     3.5203 H       
  63 H63           -9.0587     8.4755     4.3271 H       
  64 H64           -9.5812     6.6409     2.7701 H       
  65 H65          -10.8374     7.1806    -0.6374 H       
  66 H66          -10.6460     6.0041     0.6846 H       
@<TRIPOS>BOND
   1    1    2 ar
   2    1    7 1
   3    1    6 ar
   4    2    3 ar
   5    2   38 1
   6    3    4 ar
   7    3    8 1
   8    4    5 ar
   9    4   39 1
  10    5    6 ar
  11    5    9 1
  12    6   40 1
  13    9   10 ar
  14    9   14 ar
  15   10   11 ar
  16   10   41 1
  17   11   12 ar
  18   11   42 1
  19   12   13 ar
  20   12   15 1
  21   13   14 ar
  22   13   43 1
  23   14   44 1
  24   15   16 1
  25   15   45 1
  26   15   46 1
  27   16   17 1
  28   16   18 1
  29   16   47 1
  30   17   21 am
  31   17   48 1
  32   18   19 1
  33   18   30 1
  34   18   49 1
  35   19   20 1
  36   19   26 1
  37   19   50 1
  38   20   51 1
  39   21   22 1
  40   21   23 2
  41   22   24 1
  42   22   52 1
  43   22   53 1
  44   24   25 1
  45   25   54 1
  46   25   55 1
  47   25   56 1
  48   26   27 2
  49   26   28 1
  50   28   29 1
  51   29   57 1
  52   29   58 1
  53   29   59 1
  54   30   37 1
  55   31   32 ar
  56   31   36 ar
  57   31   37 1
  58   32   33 ar
  59   32   60 1
  60   33   34 ar
  61   33   61 1
  62   34   35 ar
  63   34   62 1
  64   35   36 ar
  65   35   63 1
  66   36   64 1
  67   37   65 1
  68   37   66 1

#	End of record

