#	Name: ASD01814822
#	Creating user name:	WinNT
#	Creation time:	15. 06. 2019 19:33

#	Modifying user name:	WinNT
#	Modification time:	15. 06. 2019 19:33

#	Program:	/corina/corina34_cracker 3.40 0067  02.08.2006

@<TRIPOS>MOLECULE
ASD01814822
  57   61    0    0    0
SMALL
NO_CHARGES


@<TRIPOS>ATOM
   1 C1            -0.0178     1.4608     0.0101 C.3     
   2 N2             0.0021    -0.0041     0.0020 N.pl3   
   3 C3             0.0078    -0.7880    -1.0996 C.2     
   4 C4             0.0281    -2.0753    -0.6465 C.2     
   5 N5             0.0336    -2.0001     0.6964 N.2     
   6 N6             0.0227    -0.7613     1.0419 N.2     
   7 C7             0.0415    -3.3102    -1.4702 C.ar    
   8 C8             0.0393    -3.2231    -2.8606 C.ar    
   9 C9             0.0517    -4.3745    -3.6217 C.ar    
  10 C10            0.0664    -5.6131    -3.0063 C.ar    
  11 C11            0.0805    -6.8668    -3.8426 C.3     
  12 C12            1.5059    -7.2682    -4.1221 C.ar    
  13 C13            2.1323    -6.8756    -5.2895 C.ar    
  14 C14            3.4522    -7.2627    -5.5198 C.ar    
  15 N15            4.1036    -7.9985    -4.6257 N.ar    
  16 C16            3.5383    -8.3830    -3.5070 C.ar    
  17 C17            4.0591    -9.1954    -2.3352 C.3     
  18 C18            3.0033    -8.8991    -1.2443 C.3     
  19 O19            1.8350    -8.5643    -2.0125 O.3     
  20 C20            2.2214    -8.0391    -3.2041 C.ar    
  21 C21            4.1313    -6.8517    -6.7680 C.2     
  22 O22            3.5390    -6.1789    -7.5889 O.2     
  23 N23            5.4068    -7.2233    -6.9951 N.am    
  24 C24            6.0793    -6.8163    -8.2313 C.3     
  25 H25            5.3601    -6.8028    -9.0502 H       
  26 C26            6.6782    -5.4179    -8.0523 C.3     
  27 C27            7.4454    -5.0337    -9.3202 C.3     
  28 O28            8.4566    -6.0101    -9.5777 O.3     
  29 C29            7.9517    -7.3283    -9.8002 C.3     
  30 C30            7.2034    -7.8059    -8.5528 C.3     
  31 H31            7.8951    -7.8572    -7.7120 H       
  32 O32            6.6463    -9.0995    -8.7940 O.3     
  33 C33            0.0687    -5.7053    -1.6262 C.ar    
  34 C34            0.0622    -4.5603    -0.8556 C.ar    
  35 H35            1.0048     1.8381     0.0023 H       
  36 H36           -0.5450     1.8219    -0.8730 H       
  37 H37           -0.5280     1.8123     0.9069 H       
  38 H38           -0.0019    -0.4618    -2.1291 H       
  39 H39            0.0274    -2.2564    -3.3421 H       
  40 H40            0.0496    -4.3081    -4.6997 H       
  41 H41           -0.4238    -7.6688    -3.3035 H       
  42 H42           -0.4361    -6.6811    -4.7843 H       
  43 H43            1.6051    -6.2755    -6.0163 H       
  44 H44            4.0811   -10.2580    -2.5773 H       
  45 H45            5.0451    -8.8472    -2.0276 H       
  46 H46            2.8225    -9.7826    -0.6321 H       
  47 H47            3.3132    -8.0566    -0.6260 H       
  48 H48            5.8794    -7.7602    -6.3400 H       
  49 H49            5.8781    -4.6984    -7.8786 H       
  50 H50            7.3590    -5.4194    -7.2010 H       
  51 H51            6.7563    -4.9929   -10.1637 H       
  52 H52            7.9097    -4.0572    -9.1823 H       
  53 H53            7.2692    -7.3175   -10.6500 H       
  54 H54            8.7807    -8.0048   -10.0081 H       
  55 H55            7.3029    -9.7776    -9.0043 H       
  56 H56            0.0799    -6.6750    -1.1508 H       
  57 H57            0.0688    -4.6333     0.2219 H       
@<TRIPOS>BOND
   1    1    2 1
   2    1   35 1
   3    1   36 1
   4    1   37 1
   5    2    6 1
   6    2    3 1
   7    3    4 2
   8    3   38 1
   9    4    5 1
  10    4    7 1
  11    5    6 2
  12    7   34 ar
  13    7    8 ar
  14    8    9 ar
  15    8   39 1
  16    9   10 ar
  17    9   40 1
  18   10   11 1
  19   10   33 ar
  20   11   12 1
  21   11   41 1
  22   11   42 1
  23   12   20 ar
  24   12   13 ar
  25   13   14 ar
  26   13   43 1
  27   14   15 ar
  28   14   21 1
  29   15   16 ar
  30   16   20 ar
  31   16   17 1
  32   17   18 1
  33   17   44 1
  34   17   45 1
  35   18   19 1
  36   18   46 1
  37   18   47 1
  38   19   20 1
  39   21   22 2
  40   21   23 am
  41   23   24 1
  42   23   48 1
  43   24   25 1
  44   24   30 1
  45   24   26 1
  46   26   27 1
  47   26   49 1
  48   26   50 1
  49   27   28 1
  50   27   51 1
  51   27   52 1
  52   28   29 1
  53   29   30 1
  54   29   53 1
  55   29   54 1
  56   30   31 1
  57   30   32 1
  58   32   55 1
  59   33   34 ar
  60   33   56 1
  61   34   57 1

#	End of record

