#	Name: ASD01140234
#	Creating user name:	WinNT
#	Creation time:	15. 06. 2019 19:00

#	Modifying user name:	WinNT
#	Modification time:	15. 06. 2019 19:00

#	Program:	/corina/corina34_cracker 3.40 0067  02.08.2006

@<TRIPOS>MOLECULE
ASD01140234
  81   88    0    0    0
SMALL
NO_CHARGES


@<TRIPOS>ATOM
   1 C1             0.6527     2.0047     1.3405 C.ar    
   2 C2             0.6053     0.6099     1.4166 C.ar    
   3 C3             1.7743    -0.1310     1.3005 C.ar    
   4 C4             3.0051     0.5101     1.1069 C.ar    
   5 C5             3.0333     1.9032     1.0094 C.ar    
   6 C6             4.2103    -0.3251     1.0481 C.2     
   7 N7             5.2179    -0.2020     0.2569 N.2     
   8 C8             5.2719     0.8477    -0.7672 C.3     
   9 C9             5.2184     2.1785    -0.0626 C.2     
  10 N10            4.2168     2.5997     0.7493 N.pl3   
  11 C11           -0.6476    -0.0547     1.6147 C.1     
  12 C12            4.5652     3.8246     1.2290 C.2     
  13 C13            6.1454     3.1741    -0.1068 C.2     
  14 N14            5.7086     4.1708     0.7091 N.2     
  15 C15           12.1061     7.0366    -4.5924 C.2     
  16 N16           12.6020     7.9344    -3.6990 N.2     
  17 C17           13.0023     6.9436    -5.6125 C.2     
  18 N18           14.0148     7.8012    -5.3369 N.pl3   
  19 C19           13.7432     8.3849    -4.1376 C.2     
  20 C20           12.9225     6.0456    -6.8205 C.3     
  21 N21           14.0964     5.1660    -6.8022 N.2     
  22 C22           15.2959     5.6339    -6.8543 C.2     
  23 C23           15.7135     7.0398    -6.9192 C.ar    
  24 C24           15.1158     8.0483    -6.1596 C.ar    
  25 C25           16.7662     7.3713    -7.7820 C.ar    
  26 C26           17.2275     8.6792    -7.8587 C.ar    
  27 C27           16.6420     9.6723    -7.0684 C.ar    
  28 C28           18.3019     9.0097    -8.7459 C.1     
  29 C29            8.8114     5.7239    -3.3510 C.3     
  30 C30           -1.6748    -0.5995     1.7770 C.1     
  31 C31           19.1827     9.2806    -9.4732 C.1     
  32 C32            9.4300     4.1622    -1.6411 C.3     
  33 C33           16.3855     4.6317    -6.8484 C.ar    
  34 C34           17.2719     4.5650    -5.7704 C.ar    
  35 C35           18.2870     3.6260    -5.7726 C.ar    
  36 C36           18.4248     2.7561    -6.8382 C.ar    
  37 C37           17.5496     2.8186    -7.9086 C.ar    
  38 C38           16.5284     3.7458    -7.9166 C.ar    
  39 C39            4.2751    -1.4436     2.0157 C.ar    
  40 C40            4.2636    -2.7632     1.5632 C.ar    
  41 C41            4.3242    -3.8012     2.4695 C.ar    
  42 C42            4.3959    -3.5375     3.8263 C.ar    
  43 C43            4.4074    -2.2330     4.2839 C.ar    
  44 C44            4.3540    -1.1825     3.3861 C.ar    
  45 F45           17.1379     5.4155    -4.7294 F       
  46 F46            4.3657     0.0923     3.8334 F       
  47 C47           15.5982     9.3536    -6.2290 C.ar    
  48 C48            1.8575     2.6383     1.1387 C.ar    
  49 O49            9.1029     4.3653    -3.0172 O.3     
  50 C50           10.8387     6.2981    -4.4748 C.2     
  51 O51           10.0465     6.4858    -3.4005 O.3     
  52 O52           10.5061     5.5189    -5.3464 O.2     
  53 C53            7.3900     3.1726    -0.8921 C.2     
  54 O54            8.2207     4.2328    -0.8406 O.3     
  55 O55            7.6688     2.2152    -1.5871 O.2     
  56 H56           -0.2543     2.5833     1.4353 H       
  57 H57            1.7344    -1.2087     1.3602 H       
  58 H58            6.2007     0.7656    -1.3317 H       
  59 H59            4.4199     0.7515    -1.4402 H       
  60 H60            3.9880     4.4137     1.9263 H       
  61 H61           14.3708     9.1041    -3.6324 H       
  62 H62           12.0122     5.4476    -6.7767 H       
  63 H63           12.9263     6.6477    -7.7292 H       
  64 H64           17.2222     6.6049    -8.3912 H       
  65 H65           17.0079    10.6873    -7.1155 H       
  66 H66            8.3218     5.7619    -4.3241 H       
  67 H67            8.1516     6.1501    -2.5953 H       
  68 H68           -2.5934    -1.0868     1.9222 H       
  69 H69           19.9705     9.5229   -10.1238 H       
  70 H70            9.8906     3.1820    -1.5180 H       
  71 H71           10.1269     4.9345    -1.3155 H       
  72 H72           18.9735     3.5723    -4.9406 H       
  73 H73           19.2194     2.0246    -6.8357 H       
  74 H74           17.6638     2.1363    -8.7379 H       
  75 H75           15.8465     3.7923    -8.7528 H       
  76 H76            4.2069    -2.9717     0.5051 H       
  77 H77            4.3152    -4.8228     2.1194 H       
  78 H78            4.4428    -4.3546     4.5309 H       
  79 H79            4.4632    -2.0339     5.3439 H       
  80 H80           15.1490    10.1226    -5.6180 H       
  81 H81            1.8916     3.7162     1.0799 H       
@<TRIPOS>BOND
   1    1    2 ar
   2    1   48 ar
   3    1   56 1
   4    2    3 ar
   5    2   11 1
   6    3    4 ar
   7    3   57 1
   8    4    5 ar
   9    4    6 1
  10    5   48 ar
  11    5   10 1
  12    6    7 2
  13    6   39 1
  14    7    8 1
  15    8    9 1
  16    8   58 1
  17    8   59 1
  18    9   10 1
  19    9   13 2
  20   10   12 1
  21   11   30 3
  22   12   14 2
  23   12   60 1
  24   13   14 1
  25   13   53 1
  26   15   16 1
  27   15   17 2
  28   15   50 1
  29   16   19 2
  30   17   18 1
  31   17   20 1
  32   18   19 1
  33   18   24 1
  34   19   61 1
  35   20   21 1
  36   20   62 1
  37   20   63 1
  38   21   22 2
  39   22   23 1
  40   22   33 1
  41   23   24 ar
  42   23   25 ar
  43   24   47 ar
  44   25   26 ar
  45   25   64 1
  46   26   27 ar
  47   26   28 1
  48   27   47 ar
  49   27   65 1
  50   28   31 3
  51   29   51 1
  52   29   49 1
  53   29   66 1
  54   29   67 1
  55   30   68 1
  56   31   69 1
  57   32   49 1
  58   32   54 1
  59   32   70 1
  60   32   71 1
  61   33   34 ar
  62   33   38 ar
  63   34   35 ar
  64   34   45 1
  65   35   36 ar
  66   35   72 1
  67   36   37 ar
  68   36   73 1
  69   37   38 ar
  70   37   74 1
  71   38   75 1
  72   39   40 ar
  73   39   44 ar
  74   40   41 ar
  75   40   76 1
  76   41   42 ar
  77   41   77 1
  78   42   43 ar
  79   42   78 1
  80   43   44 ar
  81   43   79 1
  82   44   46 1
  83   47   80 1
  84   48   81 1
  85   50   51 1
  86   50   52 2
  87   53   54 1
  88   53   55 2

#	End of record

