#	Name: ASD09116110
#	Creating user name:	WinNT
#	Creation time:	15. 06. 2019 21:20

#	Modifying user name:	WinNT
#	Modification time:	15. 06. 2019 21:20

#	Program:	/corina/corina34_cracker 3.40 0067  02.08.2006

@<TRIPOS>MOLECULE
ASD09116110
  26   27    0    0    0
SMALL
NO_CHARGES


@<TRIPOS>ATOM
   1 C1            -0.0165     1.3676     0.0096 C.ar    
   2 C2             0.0021    -0.0041     0.0020 C.ar    
   3 C3             1.3142    -0.7547    -0.0145 C.3     
   4 C4             1.9815    -0.6153     1.3576 C.3     
   5 C5             2.6849     0.7109     1.4440 C.2     
   6 C6             1.9456     2.0183     1.3723 C.3     
   7 C7             1.2745     2.1540     0.0015 C.3     
   8 C8            -1.1849    -0.7169     0.0085 C.ar    
   9 C9            -2.3915    -0.0419     0.0226 C.ar    
  10 C10           -2.4103     1.3401     0.0302 C.ar    
  11 C11           -1.2225     2.0478     0.0189 C.ar    
  12 O12            3.8851     0.7265     1.5760 O.2     
  13 N13           -3.6632    -0.7994     0.0291 N.pl3   
  14 O14           -3.6467    -2.0172     0.0219 O.2     
  15 O15           -4.7262    -0.2048     0.0415 O.2     
  16 H16            1.1297    -1.8080    -0.2255 H       
  17 H17            1.9652    -0.3353    -0.7815 H       
  18 H18            1.2228    -0.6753     2.1380 H       
  19 H19            2.7050    -1.4193     1.4927 H       
  20 H20            1.1857     2.0490     2.1532 H       
  21 H21            2.6469     2.8402     1.5163 H       
  22 H22            1.9368     1.7608    -0.7699 H       
  23 H23            1.0612     3.2041    -0.1982 H       
  24 H24           -1.1683    -1.7967     0.0021 H       
  25 H25           -3.3528     1.8673     0.0407 H       
  26 H26           -1.2353     3.1277     0.0260 H       
@<TRIPOS>BOND
   1    1    2 ar
   2    1    7 1
   3    1   11 ar
   4    2    3 1
   5    2    8 ar
   6    3    4 1
   7    3   16 1
   8    3   17 1
   9    4    5 1
  10    4   18 1
  11    4   19 1
  12    5    6 1
  13    5   12 2
  14    6    7 1
  15    6   20 1
  16    6   21 1
  17    7   22 1
  18    7   23 1
  19    8    9 ar
  20    8   24 1
  21    9   10 ar
  22    9   13 1
  23   10   11 ar
  24   10   25 1
  25   11   26 1
  26   13   14 2
  27   13   15 2

#	End of record

