#	Name: ASD01900535
#	Creating user name:	WinNT
#	Creation time:	15. 06. 2019 19:52

#	Modifying user name:	WinNT
#	Modification time:	15. 06. 2019 19:52

#	Program:	/corina/corina34_cracker 3.40 0067  02.08.2006

@<TRIPOS>MOLECULE
ASD01900535
  26   28    0    0    0
SMALL
NO_CHARGES


@<TRIPOS>ATOM
   1 O1             0.0263     1.4081     0.3664 O.3     
   2 N2             0.0460    -0.0052     0.3620 N.2     
   3 C3             1.2468    -0.4255     0.0744 C.2     
   4 C4             2.0883     0.7639    -0.1276 C.ar    
   5 C5             1.2571     1.8761     0.0714 C.ar    
   6 C6             1.7846     3.1573    -0.0553 C.ar    
   7 C7             3.1168     3.3242    -0.3746 C.ar    
   8 C8             3.9381     2.2237    -0.5712 C.ar    
   9 C9             3.4333     0.9483    -0.4503 C.ar    
  10 N10            1.6549    -1.7492    -0.0224 N.pl3   
  11 C11            0.7168    -2.7794     0.0867 C.ar    
  12 C12           -0.5984    -2.5673    -0.3061 C.ar    
  13 C13           -1.5240    -3.5891    -0.1965 C.ar    
  14 C14           -1.1394    -4.8220     0.3048 C.ar    
  15 C15            0.1692    -5.0341     0.6964 C.ar    
  16 C16            1.0994    -4.0192     0.5830 C.ar    
  17 F17           -2.8038    -3.3847    -0.5781 F       
  18 F18            0.9938     4.2362     0.1335 F       
  19 H19            3.5233     4.3200    -0.4726 H       
  20 H20            4.9789     2.3679    -0.8206 H       
  21 H21            4.0760     0.0941    -0.6038 H       
  22 H22            2.5910    -1.9589    -0.1658 H       
  23 H23           -0.8980    -1.6058    -0.6961 H       
  24 H24           -1.8634    -5.6188     0.3900 H       
  25 H25            0.4659    -5.9962     1.0871 H       
  26 H26            2.1226    -4.1880     0.8846 H       
@<TRIPOS>BOND
   1    1    2 1
   2    1    5 1
   3    2    3 2
   4    3    4 1
   5    3   10 1
   6    4    5 ar
   7    4    9 ar
   8    5    6 ar
   9    6    7 ar
  10    6   18 1
  11    7    8 ar
  12    7   19 1
  13    8    9 ar
  14    8   20 1
  15    9   21 1
  16   10   11 1
  17   10   22 1
  18   11   12 ar
  19   11   16 ar
  20   12   13 ar
  21   12   23 1
  22   13   14 ar
  23   13   17 1
  24   14   15 ar
  25   14   24 1
  26   15   16 ar
  27   15   25 1
  28   16   26 1

#	End of record

