#	Name: ASD01028093
#	Creating user name:	WinNT
#	Creation time:	15. 06. 2019 18:56

#	Modifying user name:	WinNT
#	Modification time:	15. 06. 2019 18:56

#	Program:	/corina/corina34_cracker 3.40 0067  02.08.2006

@<TRIPOS>MOLECULE
ASD01028093
  79   84    0    0    0
SMALL
NO_CHARGES


@<TRIPOS>ATOM
   1 C1            -1.3138     2.3520    -0.0114 C.3     
   2 C2            -1.1259     0.8403    -0.1446 C.3     
   3 C3            -2.4084     0.1253     0.2843 C.3     
   4 C4             0.8887     2.7842     1.0873 C.3     
   5 C5             0.0281     3.0742    -0.1390 C.3     
   6 N6             1.2378     4.0573     1.7718 N.3     
   7 N7            -0.5434     2.3902     4.3292 N.pl3   
   8 C8             0.1237     3.4882     4.9069 C.ar    
   9 C9             0.4312     4.5493     4.0529 C.ar    
  10 C10            0.0783     4.4694     2.5949 C.3     
  11 C11            0.5077     3.5355     6.2369 C.ar    
  12 C12            1.1221     4.6794     6.7353 C.ar    
  13 C13            1.3732     5.7547     5.8937 C.ar    
  14 C14            1.0347     5.6845     4.5582 C.ar    
  15 O15           -2.1034    -1.0157     1.0868 O.3     
  16 C16           -2.2510    -0.8894     2.4314 C.ar    
  17 C17           -1.6719     0.1856     3.0503 C.ar    
  18 C18           -1.8103     0.3520     4.4309 C.ar    
  19 C19           -1.2348     1.4665     5.1060 C.ar    
  20 N20           -1.4115     1.5581     6.4056 N.ar    
  21 O21            0.4279     2.6174     7.2397 O.3     
  22 C22            0.8637     3.2472     8.4476 C.3     
  23 O23            1.3849     4.5215     8.0616 O.3     
  24 C24           -2.9744    -1.8327     3.1720 C.ar    
  25 C25           -3.1189    -1.6922     4.5371 C.ar    
  26 C26           -2.5399    -0.5952     5.1877 C.ar    
  27 N27           -2.6503    -0.4023     6.5115 N.ar    
  28 C28           -2.0984     0.6444     7.0790 C.ar    
  29 O29           -3.5403    -2.8942     2.5407 O.3     
  30 C30           -4.2651    -3.8206     3.3521 C.3     
  31 C31            2.3852     3.7552     2.6694 C.3     
  32 C32           -4.8254    -4.9397     2.4721 C.3     
  33 C33           -5.7043    -5.8627     3.3186 C.3     
  34 N34           -6.3497    -6.8563     2.4502 N.3     
  35 C35           -5.3992    -7.8932     2.0420 C.3     
  36 C36           -6.1560    -9.1141     1.5102 C.3     
  37 O37           -3.7463    -5.6910     1.9124 O.3     
  38 S38           -7.0932    -8.6201     0.0326 S.o2    
  39 C39           -7.9999    -7.1757     0.6630 C.3     
  40 C40           -6.9992    -6.2111     1.3068 C.3     
  41 O41           -6.1777    -8.1844    -0.9631 O.2     
  42 O42           -8.0276    -9.6447    -0.2780 O.2     
  43 H43           -1.9849     2.7043    -0.7956 H       
  44 H44           -1.7499     2.5777     0.9620 H       
  45 H45           -0.9023     0.5912    -1.1828 H       
  46 H46           -0.3017     0.5142     0.4893 H       
  47 H47           -3.0353     0.8107     0.8533 H       
  48 H48           -2.9508    -0.2003    -0.6053 H       
  49 H49            0.3529     2.1479     1.7820 H       
  50 H50            1.8151     2.3018     0.7799 H       
  51 H51            0.5414     2.7297    -1.0376 H       
  52 H52           -0.1458     4.1482    -0.2161 H       
  53 H53           -0.5180     2.2730     3.3615 H       
  54 H54           -0.2410     5.4584     2.2508 H       
  55 H55           -0.7361     3.7682     2.4376 H       
  56 H56            1.8355     6.6484     6.2868 H       
  57 H57            1.2399     6.5192     3.9033 H       
  58 H58           -1.1100     0.8968     2.4641 H       
  59 H59            0.0231     3.3784     9.1291 H       
  60 H60            1.6419     2.6496     8.9219 H       
  61 H61           -3.6755    -2.4262     5.1013 H       
  62 H62           -2.2103     0.7667     8.1462 H       
  63 H63           -3.5979    -4.2470     4.1012 H       
  64 H64           -5.0860    -3.3036     3.8490 H       
  65 H65            3.2238     3.3897     2.0766 H       
  66 H66            2.6815     4.6614     3.1978 H       
  67 H67            2.0911     2.9934     3.3912 H       
  68 H68           -5.4214    -4.5065     1.6689 H       
  69 H69           -5.0880    -6.3729     4.0589 H       
  70 H70           -6.4677    -5.2728     3.8258 H       
  71 H71           -4.7494    -7.5009     1.2597 H       
  72 H72           -4.7941    -8.1875     2.8996 H       
  73 H73           -5.4461    -9.8986     1.2476 H       
  74 H74           -6.8428    -9.4797     2.2735 H       
  75 H75           -3.1728    -6.1061     2.5710 H       
  76 H76           -8.5109    -6.6768    -0.1605 H       
  77 H77           -8.7284    -7.4975     1.4072 H       
  78 H78           -7.5241    -5.3177     1.6453 H       
  79 H79           -6.2441    -5.9296     0.5729 H       
@<TRIPOS>BOND
   1    1    2 1
   2    1    5 1
   3    1   43 1
   4    1   44 1
   5    2    3 1
   6    2   45 1
   7    2   46 1
   8    3   15 1
   9    3   47 1
  10    3   48 1
  11    4    5 1
  12    4    6 1
  13    4   49 1
  14    4   50 1
  15    5   51 1
  16    5   52 1
  17    6   31 1
  18    6   10 1
  19    7    8 1
  20    7   19 1
  21    7   53 1
  22    8    9 ar
  23    8   11 ar
  24    9   10 1
  25    9   14 ar
  26   10   54 1
  27   10   55 1
  28   11   12 ar
  29   11   21 1
  30   12   13 ar
  31   12   23 1
  32   13   14 ar
  33   13   56 1
  34   14   57 1
  35   15   16 1
  36   16   17 ar
  37   16   24 ar
  38   17   18 ar
  39   17   58 1
  40   18   19 ar
  41   18   26 ar
  42   19   20 ar
  43   20   28 ar
  44   21   22 1
  45   22   23 1
  46   22   59 1
  47   22   60 1
  48   24   25 ar
  49   24   29 1
  50   25   26 ar
  51   25   61 1
  52   26   27 ar
  53   27   28 ar
  54   28   62 1
  55   29   30 1
  56   30   32 1
  57   30   63 1
  58   30   64 1
  59   31   65 1
  60   31   66 1
  61   31   67 1
  62   32   33 1
  63   32   37 1
  64   32   68 1
  65   33   34 1
  66   33   69 1
  67   33   70 1
  68   34   35 1
  69   34   40 1
  70   35   36 1
  71   35   71 1
  72   35   72 1
  73   36   38 1
  74   36   73 1
  75   36   74 1
  76   37   75 1
  77   38   39 1
  78   38   41 2
  79   38   42 2
  80   39   40 1
  81   39   76 1
  82   39   77 1
  83   40   78 1
  84   40   79 1

#	End of record

