#	Name: ASD01850031
#	Creating user name:	WinNT
#	Creation time:	15. 06. 2019 19:38

#	Modifying user name:	WinNT
#	Modification time:	15. 06. 2019 19:38

#	Program:	/corina/corina34_cracker 3.40 0067  02.08.2006

@<TRIPOS>MOLECULE
ASD01850031
  48   52    0    0    0
SMALL
NO_CHARGES


@<TRIPOS>ATOM
   1 C1             1.0800     1.1147     0.2212 C.3     
   2 C2             0.8100    -0.3643     0.1175 C.ar    
   3 C3             0.8074    -1.1479     1.2563 C.ar    
   4 C4             0.5598    -2.5045     1.1612 C.ar    
   5 C5             0.3143    -3.0775    -0.0726 C.ar    
   6 C6             0.3160    -2.2937    -1.2113 C.ar    
   7 C7             0.5593    -0.9363    -1.1157 C.ar    
   8 C8             0.0453    -4.5567    -0.1764 C.3     
   9 N9            -0.6196    -5.0539     1.0338 N.am    
  10 C10            0.4515    -5.5382     1.9308 C.3     
  11 C11            1.7691    -5.3528     1.1398 C.3     
  12 N12            1.3133    -5.3226    -0.2609 N.am    
  13 C13            1.4858    -5.6793    -1.5340 C.2     
  14 O14            2.5377    -6.0401    -2.0247 O.2     
  15 C15            0.2007    -5.5684    -2.2575 C.ar    
  16 C16           -0.7188    -4.8754    -1.4296 C.ar    
  17 C17           -2.0055    -4.6524    -1.8625 C.ar    
  18 C18           -2.4027    -5.0944    -3.1131 C.ar    
  19 C19           -1.5088    -5.7614    -3.9324 C.ar    
  20 C20           -0.2072    -5.9943    -3.5214 C.ar    
  21 C21           -1.9448    -5.0660     1.2794 C.2     
  22 O22           -2.7130    -4.5429     0.4958 O.2     
  23 C23           -2.4637    -5.7149     2.5009 C.ar    
  24 C24           -3.8389    -5.8816     2.6751 C.ar    
  25 C25           -4.3191    -6.4882     3.8165 C.ar    
  26 C26           -3.4399    -6.9327     4.7909 C.ar    
  27 C27           -2.0709    -6.7700     4.6239 C.ar    
  28 C28           -1.5800    -6.1688     3.4826 C.ar    
  29 F29           -1.2184    -7.2053     5.5772 F       
  30 F30           -3.9162    -7.5260     5.9074 F       
  31 H31            2.1508     1.2960     0.1278 H       
  32 H32            0.5521     1.6372    -0.5766 H       
  33 H33            0.7324     1.4807     1.1873 H       
  34 H34            0.9992    -0.7002     2.2203 H       
  35 H35            0.5585    -3.1169     2.0508 H       
  36 H36            0.1245    -2.7414    -2.1753 H       
  37 H37            0.5606    -0.3240    -2.0053 H       
  38 H38            0.4741    -4.9456     2.8454 H       
  39 H39            0.2983    -6.5913     2.1667 H       
  40 H40            2.2510    -4.4128     1.4087 H       
  41 H41            2.4415    -6.1939     1.3084 H       
  42 H42           -2.7064    -4.1326    -1.2262 H       
  43 H43           -3.4135    -4.9183    -3.4501 H       
  44 H44           -1.8234    -6.0996    -4.9086 H       
  45 H45            0.4803    -6.5159    -4.1707 H       
  46 H46           -4.5257    -5.5355     1.9169 H       
  47 H47           -5.3829    -6.6169     3.9514 H       
  48 H48           -0.5154    -6.0423     3.3527 H       
@<TRIPOS>BOND
   1    1    2 1
   2    1   31 1
   3    1   32 1
   4    1   33 1
   5    2    3 ar
   6    2    7 ar
   7    3    4 ar
   8    3   34 1
   9    4    5 ar
  10    4   35 1
  11    5    6 ar
  12    5    8 1
  13    6    7 ar
  14    6   36 1
  15    7   37 1
  16    8    9 1
  17    8   12 1
  18    8   16 1
  19    9   10 1
  20    9   21 am
  21   10   11 1
  22   10   38 1
  23   10   39 1
  24   11   12 1
  25   11   40 1
  26   11   41 1
  27   12   13 am
  28   13   14 2
  29   13   15 1
  30   15   16 ar
  31   15   20 ar
  32   16   17 ar
  33   17   18 ar
  34   17   42 1
  35   18   19 ar
  36   18   43 1
  37   19   20 ar
  38   19   44 1
  39   20   45 1
  40   21   22 2
  41   21   23 1
  42   23   24 ar
  43   23   28 ar
  44   24   25 ar
  45   24   46 1
  46   25   26 ar
  47   25   47 1
  48   26   27 ar
  49   26   30 1
  50   27   28 ar
  51   27   29 1
  52   28   48 1

#	End of record

