#	Name: ASD01412096
#	Creating user name:	WinNT
#	Creation time:	15. 06. 2019 19:20

#	Modifying user name:	WinNT
#	Modification time:	15. 06. 2019 19:20

#	Program:	/corina/corina34_cracker 3.40 0067  02.08.2006

@<TRIPOS>MOLECULE
ASD01412096
  86   92    0    0    0
SMALL
NO_CHARGES


@<TRIPOS>ATOM
   1 C1             1.3327     3.8435    -2.6640 C.ar    
   2 C2             0.6950     2.5716    -2.6887 C.ar    
   3 C3            -0.5388     2.7411    -3.3441 C.2     
   4 C4            -0.6189     4.0357    -3.7010 C.2     
   5 N5             0.4819     4.7359    -3.2545 N.pl3   
   6 C6            -1.6427     4.7463    -4.5213 C.2     
   7 C7            -1.2094     5.6265    -5.4674 C.2     
   8 C8             0.2344     5.8154    -5.8223 C.3     
   9 C9             1.0144     6.6418    -4.7817 C.3     
  10 C10            0.5979     6.1803    -3.3800 C.3     
  11 C11           -1.5734     1.6751    -3.5977 C.3     
  12 C12           -0.9597     0.5606    -4.4475 C.3     
  13 C13           -2.0101    -0.5216    -4.7051 C.3     
  14 C14           -2.4841    -1.1002    -3.3704 C.3     
  15 C15           -3.0978     0.0143    -2.5205 C.3     
  16 C16           -2.0474     1.0965    -2.2630 C.3     
  17 C17            2.5895     3.9965    -2.0969 C.ar    
  18 C18            3.1833     2.8504    -1.5533 C.ar    
  19 C19            2.5434     1.6057    -1.5744 C.ar    
  20 C20            1.3053     1.4371    -2.1311 C.ar    
  21 C21            4.5210     2.9581    -0.9418 C.2     
  22 N22            5.1100     1.8672    -0.4131 N.am    
  23 O23            5.0925     4.0311    -0.9146 O.2     
  24 C24            6.4844     1.9470     0.0877 C.3     
  25 C25            6.5675     2.9507     1.2088 C.2     
  26 C26            6.9475     0.5616     0.5834 C.3     
  27 C27            7.7097    -0.0386    -0.6240 C.3     
  28 C28            8.4474     1.1916    -1.2083 C.3     
  29 C29            7.4379     2.3489    -1.0512 C.3     
  30 N30            5.5656     3.0438     2.1055 N.am    
  31 O31            7.5358     3.6746     1.3041 O.2     
  32 C32            5.5721     4.0657     3.0546 C.ar    
  33 C33            5.0302     3.8433     4.3171 C.ar    
  34 C34            5.0348     4.8485     5.2569 C.ar    
  35 C35            5.5856     6.0964     4.9414 C.ar    
  36 C36            6.1296     6.3156     3.6700 C.ar    
  37 C37            6.1255     5.3029     2.7383 C.ar    
  38 C38            5.5924     7.1730     5.9414 C.2     
  39 C39            6.1245     8.3765     5.6348 C.2     
  40 C40            6.1310     9.4152     6.5997 C.2     
  41 O41            5.6575     9.2230     7.7037 O.2     
  42 O42            6.6624    10.6171     6.2935 O.3     
  43 N43           -2.9597     4.6601    -4.4450 N.2     
  44 C44           -3.6478     5.4499    -5.1958 C.2     
  45 S45           -2.6165     6.4184    -6.1563 S.3     
  46 C46           -5.1533     5.5111    -5.2239 C.3     
  47 H47            0.7033     4.8357    -5.9136 H       
  48 H48            0.2945     6.3204    -6.7863 H       
  49 H49            2.0844     6.4837    -4.9162 H       
  50 H50            0.7797     7.6992    -4.9036 H       
  51 H51           -0.3645     6.6302    -3.1362 H       
  52 H52            1.3375     6.5347    -2.6619 H       
  53 H53           -2.4213     2.1103    -4.1267 H       
  54 H54           -0.6220     0.9729    -5.3984 H       
  55 H55           -0.1118     0.1254    -3.9186 H       
  56 H56           -2.8580    -0.0863    -5.2340 H       
  57 H57           -1.5729    -1.3155    -5.3105 H       
  58 H58           -3.2325    -1.8711    -3.5538 H       
  59 H59           -1.6362    -1.5354    -2.8414 H       
  60 H60           -3.9457     0.4495    -3.0495 H       
  61 H61           -3.4355    -0.3979    -1.5697 H       
  62 H62           -1.1995     0.6613    -1.7341 H       
  63 H63           -2.4846     1.8905    -1.6576 H       
  64 H64            3.0871     4.9548    -2.0759 H       
  65 H65            3.0422     0.7528    -1.1382 H       
  66 H66            0.8185     0.4731    -2.1410 H       
  67 H67            4.6239     1.0292    -0.3641 H       
  68 H68            7.6126     0.6658     1.4407 H       
  69 H69            6.0886    -0.0589     0.8390 H       
  70 H70            8.4217    -0.7952    -0.2941 H       
  71 H71            7.0134    -0.4536    -1.3528 H       
  72 H72            9.3547     1.3976    -0.6404 H       
  73 H73            8.6830     1.0310    -2.2604 H       
  74 H74            6.8780     2.4841    -1.9766 H       
  75 H75            7.9620     3.2692    -0.7936 H       
  76 H76            4.8401     2.4001     2.0907 H       
  77 H77            4.6052     2.8805     4.5595 H       
  78 H78            4.6137     4.6751     6.2363 H       
  79 H79            6.5553     7.2767     3.4222 H       
  80 H80            6.5452     5.4708     1.7575 H       
  81 H81            5.1720     7.0023     6.9215 H       
  82 H82            6.5448     8.5471     4.6548 H       
  83 H83            6.6211    11.2605     7.0142 H       
  84 H84           -5.5010     6.2408    -4.4926 H       
  85 H85           -5.4865     5.8066    -6.2188 H       
  86 H86           -5.5614     4.5301    -4.9806 H       
@<TRIPOS>BOND
   1    1    2 ar
   2    1   17 ar
   3    1    5 1
   4    2    3 1
   5    2   20 ar
   6    3    4 2
   7    3   11 1
   8    4    5 1
   9    4    6 1
  10    5   10 1
  11    6    7 2
  12    6   43 1
  13    7    8 1
  14    7   45 1
  15    8    9 1
  16    8   47 1
  17    8   48 1
  18    9   10 1
  19    9   49 1
  20    9   50 1
  21   10   51 1
  22   10   52 1
  23   11   12 1
  24   11   16 1
  25   11   53 1
  26   12   13 1
  27   12   54 1
  28   12   55 1
  29   13   14 1
  30   13   56 1
  31   13   57 1
  32   14   15 1
  33   14   58 1
  34   14   59 1
  35   15   16 1
  36   15   60 1
  37   15   61 1
  38   16   62 1
  39   16   63 1
  40   17   18 ar
  41   17   64 1
  42   18   19 ar
  43   18   21 1
  44   19   20 ar
  45   19   65 1
  46   20   66 1
  47   21   22 am
  48   21   23 2
  49   22   24 1
  50   22   67 1
  51   24   25 1
  52   24   26 1
  53   24   29 1
  54   25   30 am
  55   25   31 2
  56   26   27 1
  57   26   68 1
  58   26   69 1
  59   27   28 1
  60   27   70 1
  61   27   71 1
  62   28   29 1
  63   28   72 1
  64   28   73 1
  65   29   74 1
  66   29   75 1
  67   30   32 1
  68   30   76 1
  69   32   33 ar
  70   32   37 ar
  71   33   34 ar
  72   33   77 1
  73   34   35 ar
  74   34   78 1
  75   35   36 ar
  76   35   38 1
  77   36   37 ar
  78   36   79 1
  79   37   80 1
  80   38   39 2
  81   38   81 1
  82   39   40 1
  83   39   82 1
  84   40   41 2
  85   40   42 1
  86   42   83 1
  87   43   44 2
  88   44   45 1
  89   44   46 1
  90   46   84 1
  91   46   85 1
  92   46   86 1

#	End of record

