#	Name: ASD01912327
#	Creating user name:	WinNT
#	Creation time:	15. 06. 2019 19:59

#	Modifying user name:	WinNT
#	Modification time:	15. 06. 2019 19:59

#	Program:	/corina/corina34_cracker 3.40 0067  02.08.2006

@<TRIPOS>MOLECULE
ASD01912327
  49   52    0    0    0
SMALL
NO_CHARGES


@<TRIPOS>ATOM
   1 N1            -0.0503     1.8908     0.2606 N.pl3   
   2 N2            -0.2042     2.9610     1.1535 N.2     
   3 N3             0.9511     3.4425     1.4505 N.2     
   4 C4             1.9226     2.7560     0.8032 C.ar    
   5 C5             1.2970     1.7564     0.0349 C.ar    
   6 C6             3.3153     2.8696     0.7769 C.ar    
   7 C7             4.0596     1.9957    -0.0055 C.ar    
   8 C8             3.4188     1.0062    -0.7647 C.ar    
   9 C9             2.0610     0.8894    -0.7425 C.ar    
  10 C10            5.5320     2.1097    -0.0383 C.2     
  11 O11            6.2206     1.1098     0.0254 O.2     
  12 N12            6.1119     3.3221    -0.1386 N.am    
  13 C13            7.5711     3.4577    -0.0425 C.3     
  14 C14            8.0901     4.1270    -1.3214 C.3     
  15 C15            7.2579     5.3626    -1.5860 C.2     
  16 C16            5.7524     5.2195    -1.6321 C.3     
  17 C17            5.2925     4.5221    -0.3514 C.3     
  18 C18            7.8368     6.5478    -1.7735 C.2     
  19 C19            7.0324     7.7061    -2.0227 C.1     
  20 C20            6.3730     8.6556    -2.2270 C.1     
  21 C21            5.5686     9.8139    -2.4763 C.ar    
  22 C22            6.1810    11.0551    -2.6723 C.ar    
  23 C23            5.3898    12.1635    -2.9118 C.ar    
  24 C24            4.0112    11.9994    -2.9484 C.ar    
  25 C25            3.4705    10.7428    -2.7462 C.ar    
  26 N26            4.2444     9.7002    -2.5250 N.ar    
  27 C27            1.9749    10.5626    -2.7855 C.3     
  28 C28           -1.1195     1.0711    -0.3148 C.3     
  29 H29            3.8097     3.6319     1.3608 H       
  30 H30            4.0053     0.3315    -1.3708 H       
  31 H31            1.5764     0.1237    -1.3301 H       
  32 H32            7.8248     4.0730     0.8207 H       
  33 H33            8.0235     2.4717     0.0634 H       
  34 H34            9.1346     4.4094    -1.1899 H       
  35 H35            7.9988     3.4366    -2.1599 H       
  36 H36            5.2921     6.2052    -1.7006 H       
  37 H37            5.4671     4.6198    -2.4964 H       
  38 H38            4.2451     4.2367    -0.4490 H       
  39 H39            5.4114     5.2003     0.4935 H       
  40 H40            8.9126     6.6351    -1.7375 H       
  41 H41            7.2565    11.1471    -2.6368 H       
  42 H42            5.8341    13.1356    -3.0667 H       
  43 H43            3.3668    12.8462    -3.1330 H       
  44 H44            1.6629    10.3356    -3.8050 H       
  45 H45            1.6904     9.7417    -2.1273 H       
  46 H46            1.4895    11.4801    -2.4528 H       
  47 H47           -1.4568     1.5181    -1.2499 H       
  48 H48           -0.7435     0.0663    -0.5072 H       
  49 H49           -1.9538     1.0190     0.3847 H       
@<TRIPOS>BOND
   1    1    2 1
   2    1    5 1
   3    1   28 1
   4    2    3 2
   5    3    4 1
   6    4    5 ar
   7    4    6 ar
   8    5    9 ar
   9    6    7 ar
  10    6   29 1
  11    7    8 ar
  12    7   10 1
  13    8    9 ar
  14    8   30 1
  15    9   31 1
  16   10   11 2
  17   10   12 am
  18   12   13 1
  19   12   17 1
  20   13   14 1
  21   13   32 1
  22   13   33 1
  23   14   15 1
  24   14   34 1
  25   14   35 1
  26   15   16 1
  27   15   18 2
  28   16   17 1
  29   16   36 1
  30   16   37 1
  31   17   38 1
  32   17   39 1
  33   18   19 1
  34   18   40 1
  35   19   20 3
  36   20   21 1
  37   21   22 ar
  38   21   26 ar
  39   22   23 ar
  40   22   41 1
  41   23   24 ar
  42   23   42 1
  43   24   25 ar
  44   24   43 1
  45   25   26 ar
  46   25   27 1
  47   27   44 1
  48   27   45 1
  49   27   46 1
  50   28   47 1
  51   28   48 1
  52   28   49 1

#	End of record

