#	Name: ASD01001125
#	Creating user name:	WinNT
#	Creation time:	15. 06. 2019 18:55

#	Modifying user name:	WinNT
#	Modification time:	15. 06. 2019 18:55

#	Program:	/corina/corina34_cracker 3.40 0067  02.08.2006

@<TRIPOS>MOLECULE
ASD01001125
  45   48    0    0    0
SMALL
NO_CHARGES


@<TRIPOS>ATOM
   1 C1            -0.0165     1.3627     0.0095 C.2     
   2 C2             0.0021    -0.0041     0.0020 C.2     
   3 C3             1.2719    -0.5303    -0.0129 C.2     
   4 C4             2.2604     0.3718    -0.0175 C.2     
   5 S5             1.6372     1.9600    -0.0030 S.3     
   6 C6            -1.2213     2.1964     0.0200 C.2     
   7 O7            -2.3215     1.6759     0.0226 O.2     
   8 N8            -1.1113     3.5396     0.0268 N.am    
   9 C9            -4.5407     5.3381     0.0541 C.2     
  10 C10           -3.5817     6.2712     0.0543 C.2     
  11 C11           -2.2494     5.6950     0.0441 C.2     
  12 C12           -2.2503     4.3278     0.0367 C.2     
  13 S13           -3.8431     3.7268     0.0419 S.3     
  14 C14           -3.8640     7.7651     0.0646 C.3     
  15 C15           -5.3180     7.9944    -0.3538 C.3     
  16 C16           -6.2308     7.0970     0.4872 C.3     
  17 C17           -6.0271     5.6400     0.0575 C.3     
  18 C18           -1.0240     6.4996     0.0415 C.2     
  19 O19           -0.5096     6.8282     1.0945 O.2     
  20 N20           -0.4671     6.8754    -1.1268 N.am    
  21 C21            0.7627     7.6831    -1.1546 C.3     
  22 C22            1.7650     7.0054    -2.0959 C.3     
  23 O23            1.1365     6.7622    -3.3567 O.3     
  24 C24            0.0212     5.8702    -3.2923 C.3     
  25 C25           -1.0674     6.4850    -2.4123 C.3     
  26 H26           -0.8918    -0.6101     0.0076 H       
  27 H27            1.4582    -1.5941    -0.0201 H       
  28 H28            3.3122     0.1271    -0.0283 H       
  29 H29           -0.2344     3.9545     0.0247 H       
  30 H30           -3.7059     8.1599     1.0682 H       
  31 H31           -3.1982     8.2676    -0.6371 H       
  32 H32           -5.5836     9.0389    -0.1908 H       
  33 H33           -5.4367     7.7479    -1.4089 H       
  34 H34           -5.9801     7.2083     1.5421 H       
  35 H35           -7.2707     7.3815     0.3263 H       
  36 H36           -6.4336     5.4859    -0.9421 H       
  37 H37           -6.5320     4.9823     0.7651 H       
  38 H38            0.5358     8.6848    -1.5196 H       
  39 H39            1.1846     7.7441    -0.1514 H       
  40 H40            2.6277     7.6561    -2.2386 H       
  41 H41            2.0894     6.0594    -1.6623 H       
  42 H42           -0.3707     5.7042    -4.2958 H       
  43 H43            0.3392     4.9201    -2.8631 H       
  44 H44           -1.8568     5.7530    -2.2417 H       
  45 H45           -1.4816     7.3640    -2.9061 H       
@<TRIPOS>BOND
   1    1    2 2
   2    1    5 1
   3    1    6 1
   4    2    3 1
   5    2   26 1
   6    3    4 2
   7    3   27 1
   8    4    5 1
   9    4   28 1
  10    6    7 2
  11    6    8 am
  12    8   12 1
  13    8   29 1
  14    9   10 2
  15    9   13 1
  16    9   17 1
  17   10   11 1
  18   10   14 1
  19   11   12 2
  20   11   18 1
  21   12   13 1
  22   14   15 1
  23   14   30 1
  24   14   31 1
  25   15   16 1
  26   15   32 1
  27   15   33 1
  28   16   17 1
  29   16   34 1
  30   16   35 1
  31   17   36 1
  32   17   37 1
  33   18   19 2
  34   18   20 am
  35   20   21 1
  36   20   25 1
  37   21   22 1
  38   21   38 1
  39   21   39 1
  40   22   23 1
  41   22   40 1
  42   22   41 1
  43   23   24 1
  44   24   25 1
  45   24   42 1
  46   24   43 1
  47   25   44 1
  48   25   45 1

#	End of record

