#	Name: ASD01001287
#	Creating user name:	WinNT
#	Creation time:	15. 06. 2019 18:55

#	Modifying user name:	WinNT
#	Modification time:	15. 06. 2019 18:55

#	Program:	/corina/corina34_cracker 3.40 0067  02.08.2006

@<TRIPOS>MOLECULE
ASD01001287
  72   74    0    0    0
SMALL
NO_CHARGES


@<TRIPOS>ATOM
   1 C1            -0.3224     2.2068     1.3031 C.2     
   2 C2            -0.2791     0.7417     1.4970 C.ar    
   3 C3             0.9446     0.0703     1.4950 C.ar    
   4 C4             0.9780    -1.2968     1.6770 C.ar    
   5 C5            -0.1980    -2.0023     1.8606 C.ar    
   6 C6            -1.4143    -1.3428     1.8637 C.ar    
   7 C7            -1.4613     0.0248     1.6886 C.ar    
   8 O8             0.6477     2.8853     1.5789 O.2     
   9 N9            -1.4356     2.7894     0.8155 N.am    
  10 C10           -0.1539    -3.4957     2.0578 C.3     
  11 C11           -1.4690     4.2377     0.5977 C.3     
  12 C12           -2.4398     4.8805     1.5903 C.3     
  13 C13           -1.9751     4.5902     3.0188 C.3     
  14 C14           -2.4747     6.3931     1.3628 C.3     
  15 C15           -1.9267     4.5237    -0.8094 C.2     
  16 C16           -1.0933     5.1804    -1.6362 C.2     
  17 C17           -1.5023     5.4613    -2.9669 C.2     
  18 C18           -2.8464     5.0054    -3.3694 C.ar    
  19 C19           -3.3384     5.2329    -4.6538 C.ar    
  20 C20           -4.5896     4.7935    -4.9868 C.ar    
  21 C21           -5.3709     4.1234    -4.0545 C.ar    
  22 C22           -4.8996     3.8895    -2.7785 C.ar    
  23 C23           -3.6307     4.3283    -2.4210 C.ar    
  24 O24           -3.1419     4.1088    -1.1836 O.3     
  25 O25           -0.7736     6.0547    -3.7437 O.2     
  26 Cl26          -6.9570     3.5746    -4.4984 Cl      
  27 C27            0.2662     5.6158    -1.1532 C.3     
  28 C28            1.3140     4.6718    -1.6843 C.ar    
  29 C29            2.0559     5.0185    -2.7980 C.ar    
  30 C30            3.0170     4.1526    -3.2852 C.ar    
  31 C31            3.2366     2.9403    -2.6584 C.ar    
  32 C32            2.4954     2.5940    -1.5441 C.ar    
  33 C33            1.5373     3.4618    -1.0543 C.ar    
  34 C34           -2.6122     1.9743     0.5031 C.3     
  35 C35           -3.6151     2.0641     1.6551 C.3     
  36 C36           -4.8439     1.2129     1.3289 C.3     
  37 N37           -5.8069     1.2991     2.4349 N.3     
  38 H38            1.8631     0.6198     1.3511 H       
  39 H39            1.9242    -1.8175     1.6757 H       
  40 H40           -2.3286    -1.8993     2.0076 H       
  41 H41           -2.4110     0.5390     1.6956 H       
  42 H42           -0.0664    -3.7194     3.1210 H       
  43 H43           -1.0688    -3.9409     1.6669 H       
  44 H44            0.7055    -3.9069     1.5281 H       
  45 H45           -0.4712     4.6506     0.7461 H       
  46 H46           -3.4376     4.4676     1.4418 H       
  47 H47           -0.9773     5.0030     3.1673 H       
  48 H48           -2.6667     5.0480     3.7260 H       
  49 H49           -1.9502     3.5126     3.1809 H       
  50 H50           -2.8058     6.5999     0.3451 H       
  51 H51           -3.1663     6.8510     2.0700 H       
  52 H52           -1.4769     6.8059     1.5113 H       
  53 H53           -2.7344     5.7539    -5.3819 H       
  54 H54           -4.9729     4.9690    -5.9811 H       
  55 H55           -5.5150     3.3678    -2.0606 H       
  56 H56            0.4723     6.6251    -1.5094 H       
  57 H57            0.2855     5.6041    -0.0634 H       
  58 H58            1.8843     5.9657    -3.2877 H       
  59 H59            3.5961     4.4232    -4.1557 H       
  60 H60            3.9871     2.2635    -3.0394 H       
  61 H61            2.6668     1.6467    -1.0546 H       
  62 H62            0.9607     3.1928    -0.1816 H       
  63 H63           -3.0762     2.3419    -0.4121 H       
  64 H64           -2.3090     0.9365     0.3654 H       
  65 H65           -3.1511     1.6966     2.5703 H       
  66 H66           -3.9183     3.1020     1.7928 H       
  67 H67           -5.3080     1.5804     0.4136 H       
  68 H68           -4.5408     0.1750     1.1911 H       
  69 H69           -6.6281     0.7449     2.2434 H       
  70 H70           -5.3809     1.0247     3.3074 H       
  71 H71            8.9871    11.8510     8.7260 H       
  72 Cl72           8.9871    13.2210     8.7260 Cl      
@<TRIPOS>BOND
   1    1    2 1
   2    1    8 2
   3    1    9 am
   4    2    3 ar
   5    2    7 ar
   6    3    4 ar
   7    3   38 1
   8    4    5 ar
   9    4   39 1
  10    5    6 ar
  11    5   10 1
  12    6    7 ar
  13    6   40 1
  14    7   41 1
  15    9   34 1
  16    9   11 1
  17   10   42 1
  18   10   43 1
  19   10   44 1
  20   11   12 1
  21   11   15 1
  22   11   45 1
  23   12   13 1
  24   12   14 1
  25   12   46 1
  26   13   47 1
  27   13   48 1
  28   13   49 1
  29   14   50 1
  30   14   51 1
  31   14   52 1
  32   15   16 2
  33   15   24 1
  34   16   17 1
  35   16   27 1
  36   17   18 1
  37   17   25 2
  38   18   19 ar
  39   18   23 ar
  40   19   20 ar
  41   19   53 1
  42   20   21 ar
  43   20   54 1
  44   21   22 ar
  45   21   26 1
  46   22   23 ar
  47   22   55 1
  48   23   24 1
  49   27   28 1
  50   27   56 1
  51   27   57 1
  52   28   29 ar
  53   28   33 ar
  54   29   30 ar
  55   29   58 1
  56   30   31 ar
  57   30   59 1
  58   31   32 ar
  59   31   60 1
  60   32   33 ar
  61   32   61 1
  62   33   62 1
  63   34   35 1
  64   34   63 1
  65   34   64 1
  66   35   36 1
  67   35   65 1
  68   35   66 1
  69   36   37 1
  70   36   67 1
  71   36   68 1
  72   37   69 1
  73   37   70 1
  74   71   72 1

#	End of record

