#	Name: ASD08070348
#	Creating user name:	WinNT
#	Creation time:	15. 06. 2019 21:14

#	Modifying user name:	WinNT
#	Modification time:	15. 06. 2019 21:14

#	Program:	/corina/corina34_cracker 3.40 0067  02.08.2006

@<TRIPOS>MOLECULE
ASD08070348
  41   42    0    0    0
SMALL
NO_CHARGES


@<TRIPOS>ATOM
   1 C1            -0.0180     1.4742     0.0101 C.2     
   2 C2             0.0021    -0.0041     0.0020 C.ar    
   3 C3             0.0231    -0.7114     1.2051 C.ar    
   4 C4             0.0413    -2.0908     1.1905 C.ar    
   5 C5             0.0391    -2.7730    -0.0132 C.ar    
   6 C6             0.0183    -2.0779    -1.2093 C.ar    
   7 C7            -0.0058    -0.6985    -1.2087 C.ar    
   8 O8             1.0263     2.0963     0.0035 O.2     
   9 N9            -1.1942     2.1322     0.0193 N.am    
  10 C10           -1.2141     3.5970     0.0274 C.3     
  11 C11           -2.5311     4.0925    -0.5733 C.3     
  12 C12           -2.5518     5.6223    -0.5649 C.3     
  13 C13           -2.4262     6.1262     0.8743 C.3     
  14 C14           -1.1092     5.6307     1.4750 C.3     
  15 C15           -1.0885     4.1009     1.4665 C.3     
  16 C16           -2.6567     3.5887    -2.0125 C.3     
  17 C17           -0.0347     0.0569    -2.5124 C.3     
  18 C18            0.0265     0.0301     2.5171 C.3     
  19 H19            0.0575    -2.6393     2.1207 H       
  20 H20            0.0541    -3.8529    -0.0191 H       
  21 H21            0.0168    -2.6164    -2.1455 H       
  22 H22           -2.0276     1.6358     0.0206 H       
  23 H23           -0.3801     3.9750    -0.5640 H       
  24 H24           -3.3651     3.7146     0.0180 H       
  25 H25           -1.7178     6.0003    -1.1563 H       
  26 H26           -3.4901     5.9753    -0.9929 H       
  27 H27           -2.4410     7.2161     0.8803 H       
  28 H28           -3.2602     5.7483     1.4656 H       
  29 H29           -0.2752     6.0086     0.8836 H       
  30 H30           -1.0197     5.9896     2.5003 H       
  31 H31           -1.9225     3.7229     2.0579 H       
  32 H32           -0.1502     3.7479     1.8945 H       
  33 H33           -2.6419     2.4988    -2.0185 H       
  34 H34           -3.5950     3.9417    -2.4405 H       
  35 H35           -1.8227     3.9666    -2.6039 H       
  36 H36            0.9858     0.2530    -2.8414 H       
  37 H37           -0.5513    -0.5380    -3.2656 H       
  38 H38           -0.5595     1.0020    -2.3731 H       
  39 H39           -1.0003     0.1955     2.8435 H       
  40 H40            0.5554    -0.5593     3.2661 H       
  41 H41            0.5267     0.9902     2.3905 H       
@<TRIPOS>BOND
   1    1    2 1
   2    1    8 2
   3    1    9 am
   4    2    3 ar
   5    2    7 ar
   6    3    4 ar
   7    3   18 1
   8    4    5 ar
   9    4   19 1
  10    5    6 ar
  11    5   20 1
  12    6    7 ar
  13    6   21 1
  14    7   17 1
  15    9   10 1
  16    9   22 1
  17   10   11 1
  18   10   15 1
  19   10   23 1
  20   11   12 1
  21   11   16 1
  22   11   24 1
  23   12   13 1
  24   12   25 1
  25   12   26 1
  26   13   14 1
  27   13   27 1
  28   13   28 1
  29   14   15 1
  30   14   29 1
  31   14   30 1
  32   15   31 1
  33   15   32 1
  34   16   33 1
  35   16   34 1
  36   16   35 1
  37   17   36 1
  38   17   37 1
  39   17   38 1
  40   18   39 1
  41   18   40 1
  42   18   41 1

#	End of record

