#	Name: ASD05430213
#	Creating user name:	WinNT
#	Creation time:	15. 06. 2019 21:00

#	Modifying user name:	WinNT
#	Modification time:	15. 06. 2019 21:00

#	Program:	/corina/corina34_cracker 3.40 0067  02.08.2006

@<TRIPOS>MOLECULE
ASD05430213
  71   76    0    0    0
SMALL
NO_CHARGES


@<TRIPOS>ATOM
   1 C1             0.1871     1.9330    -1.1130 C.ar    
   2 C2             0.1871     0.5676    -1.3957 C.ar    
   3 C3             1.3783    -0.1463    -1.3899 C.ar    
   4 C4             2.5663     0.4913    -1.1049 C.ar    
   5 C5             2.5742     1.8609    -0.8208 C.ar    
   6 C6             1.3748     2.5795    -0.8266 C.ar    
   7 O7             4.9509     0.4603    -0.3354 O.3     
   8 C8             4.9759     1.8269    -0.3681 C.2     
   9 C9             3.8417     2.5437    -0.5157 C.2     
  10 C10            6.0865    -0.1866     0.2480 C.3     
  11 C11            6.8718     0.6421     1.2730 C.3     
  12 N12            7.1945     1.9353     0.6664 N.pl3   
  13 C13            6.2894     2.4909    -0.2356 C.2     
  14 N14           -1.0189    -0.0865    -1.6860 N.pl3   
  15 C15           -2.1651    -0.0262    -0.9600 C.2     
  16 C16           -1.2653    -0.9027    -2.7593 C.2     
  17 C17           -2.5427    -1.3153    -2.6506 C.2     
  18 N18           -3.0674    -0.7661    -1.5453 N.2     
  19 C19           -3.2597    -2.2323    -3.6077 C.3     
  20 C20           -0.9062     4.0250    -0.8259 C.3     
  21 O21           -0.9803     2.6296    -1.1247 O.3     
  22 C22            5.9942    -1.6945     0.4868 C.3     
  23 C23            6.8817    -1.1498    -0.6344 C.3     
  24 C24            8.4198     2.6638     0.9903 C.3     
  25 C25            8.9184     3.3597    -0.2809 C.3     
  26 O26            7.8730     4.1403    -0.8513 O.3     
  27 N27            6.6056     3.5307    -0.9353 N.2     
  28 C28            8.1326     3.6930     2.0531 C.ar    
  29 C29            9.1567     4.4782     2.5489 C.ar    
  30 C30            6.8442     3.8551     2.5273 C.ar    
  31 C31            6.5795     4.7991     3.5012 C.ar    
  32 C32            7.6053     5.5825     4.0023 C.ar    
  33 C33            8.8945     5.4226     3.5231 C.ar    
  34 F34            7.3477     6.5057     4.9544 F       
  35 C35            9.4833     1.6856     1.4933 C.3     
  36 C36            9.7766     0.6485     0.4073 C.3     
  37 S37           10.9648    -0.5683     1.0384 S.o2    
  38 C38           11.1601    -1.6748    -0.3857 C.3     
  39 O39           12.2027     0.0882     1.2747 O.2     
  40 O40           10.3516    -1.2941     2.0949 O.2     
  41 H41            1.3736    -1.2038    -1.6091 H       
  42 H42            3.4910    -0.0665    -1.1004 H       
  43 H43            1.3764     3.6372    -0.6082 H       
  44 H44            3.8643     3.6182    -0.4098 H       
  45 H45            6.2640     0.7958     2.1646 H       
  46 H46            7.7915     0.1214     1.5396 H       
  47 H47           -2.3064     0.5392    -0.0507 H       
  48 H48           -0.5688    -1.1643    -3.5422 H       
  49 H49           -3.1234    -3.2664    -3.2912 H       
  50 H50           -4.3227    -1.9915    -3.6141 H       
  51 H51           -2.8516    -2.1023    -4.6100 H       
  52 H52           -1.9049     4.4594    -0.8693 H       
  53 H53           -0.4939     4.1611     0.1739 H       
  54 H54           -0.2632     4.5189    -1.5544 H       
  55 H55            6.4896    -2.0953     1.3711 H       
  56 H56            5.0692    -2.1940     0.1989 H       
  57 H57            6.5405    -1.2911    -1.6599 H       
  58 H58            7.9609    -1.1924    -0.4877 H       
  59 H59            9.7592     4.0074    -0.0326 H       
  60 H60            9.2430     2.6085    -1.0009 H       
  61 H61           10.1622     4.3532     2.1750 H       
  62 H62            6.0442     3.2439     2.1363 H       
  63 H63            5.5727     4.9261     3.8710 H       
  64 H64            9.6955     6.0328     3.9135 H       
  65 H65           10.3964     2.2318     1.7301 H       
  66 H66            9.1190     1.1814     2.3883 H       
  67 H67            8.8521     0.1428     0.1286 H       
  68 H68           10.1961     1.1464    -0.4669 H       
  69 H69           11.5389    -1.1085    -1.2366 H       
  70 H70           11.8639    -2.4686    -0.1353 H       
  71 H71           10.1949    -2.1122    -0.6411 H       
@<TRIPOS>BOND
   1    1    2 ar
   2    1    6 ar
   3    1   21 1
   4    2    3 ar
   5    2   14 1
   6    3    4 ar
   7    3   41 1
   8    4    5 ar
   9    4   42 1
  10    5    6 ar
  11    5    9 1
  12    6   43 1
  13    7    8 1
  14    7   10 1
  15    8    9 2
  16    8   13 1
  17    9   44 1
  18   10   11 1
  19   10   22 1
  20   10   23 1
  21   11   12 1
  22   11   45 1
  23   11   46 1
  24   12   13 1
  25   12   24 1
  26   13   27 2
  27   14   15 1
  28   14   16 1
  29   15   18 2
  30   15   47 1
  31   16   17 2
  32   16   48 1
  33   17   18 1
  34   17   19 1
  35   19   49 1
  36   19   50 1
  37   19   51 1
  38   20   21 1
  39   20   52 1
  40   20   53 1
  41   20   54 1
  42   22   23 1
  43   22   55 1
  44   22   56 1
  45   23   57 1
  46   23   58 1
  47   24   25 1
  48   24   28 1
  49   24   35 1
  50   25   26 1
  51   25   59 1
  52   25   60 1
  53   26   27 1
  54   28   29 ar
  55   28   30 ar
  56   29   33 ar
  57   29   61 1
  58   30   31 ar
  59   30   62 1
  60   31   32 ar
  61   31   63 1
  62   32   33 ar
  63   32   34 1
  64   33   64 1
  65   35   36 1
  66   35   65 1
  67   35   66 1
  68   36   37 1
  69   36   67 1
  70   36   68 1
  71   37   38 1
  72   37   39 2
  73   37   40 2
  74   38   69 1
  75   38   70 1
  76   38   71 1

#	End of record

