#	Name: ASD07300153
#	Creating user name:	WinNT
#	Creation time:	15. 06. 2019 21:09

#	Modifying user name:	WinNT
#	Modification time:	15. 06. 2019 21:09

#	Program:	/corina/corina34_cracker 3.40 0067  02.08.2006

@<TRIPOS>MOLECULE
ASD07300153
  42   45    0    0    0
SMALL
NO_CHARGES


@<TRIPOS>ATOM
   1 C1            -0.0293     1.3865     0.1045 C.ar    
   2 C2            -0.0119    -0.0107     0.1588 C.ar    
   3 C3             1.2032    -0.6777     0.1143 C.ar    
   4 C4             2.3630     0.0774     0.0169 C.ar    
   5 C5             2.2717     1.4556    -0.0323 C.ar    
   6 N6             1.1026     2.0647     0.0118 N.ar    
   7 C7            -2.1232     0.6629     0.2640 C.2     
   8 N8            -1.3637     1.7704     0.1727 N.am    
   9 N9            -1.3357    -0.4296     0.2529 N.am    
  10 O10           -3.3375     0.6505     0.3408 O.2     
  11 C11           -1.7932    -1.8189     0.3347 C.3     
  12 C12           -1.8681    -2.2457     1.8020 C.3     
  13 C13           -1.8388     3.0901     0.1505 C.ar    
  14 C14           -3.2026     3.3385     0.2259 C.ar    
  15 C15           -3.6698     4.6377     0.2045 C.ar    
  16 C16           -2.7764     5.6948     0.1073 C.ar    
  17 C17           -1.4133     5.4470     0.0315 C.ar    
  18 C18           -0.9449     4.1484     0.0591 C.ar    
  19 O19           -3.2368     6.9738     0.0858 O.3     
  20 C20           -4.5754     7.1668     0.0009 C.2     
  21 N21           -5.4733     6.2312    -0.1863 N.2     
  22 C22           -6.6961     6.7881    -0.2164 C.2     
  23 C23           -6.5591     8.1156    -0.0425 C.2     
  24 N24           -5.2135     8.3632     0.1015 N.pl3   
  25 C25           -4.5865     9.6692     0.3189 C.3     
  26 Br26          -7.9507     9.3952     0.0024 Br      
  27 Br27          -8.3283     5.8653    -0.4618 Br      
  28 H28            1.2454    -1.7561     0.1549 H       
  29 H29            3.3276    -0.4070    -0.0198 H       
  30 H30            3.1739     2.0445    -0.1078 H       
  31 H31           -2.7806    -1.9036    -0.1192 H       
  32 H32           -1.0928    -2.4639    -0.1960 H       
  33 H33           -2.2085    -3.2794     1.8629 H       
  34 H34           -0.8808    -2.1609     2.2559 H       
  35 H35           -2.5685    -1.6007     2.3327 H       
  36 H36           -3.8981     2.5157     0.3008 H       
  37 H37           -4.7307     4.8310     0.2631 H       
  38 H38           -0.7183     6.2701    -0.0448 H       
  39 H39            0.1164     3.9558     0.0049 H       
  40 H40           -4.3484    10.1226    -0.6434 H       
  41 H41           -5.2734    10.3157     0.8651 H       
  42 H42           -3.6711     9.5412     0.8966 H       
@<TRIPOS>BOND
   1    1    2 ar
   2    1    6 ar
   3    1    8 1
   4    2    3 ar
   5    2    9 1
   6    3    4 ar
   7    3   28 1
   8    4    5 ar
   9    4   29 1
  10    5    6 ar
  11    5   30 1
  12    7    8 am
  13    7    9 am
  14    7   10 2
  15    8   13 1
  16    9   11 1
  17   11   12 1
  18   11   31 1
  19   11   32 1
  20   12   33 1
  21   12   34 1
  22   12   35 1
  23   13   14 ar
  24   13   18 ar
  25   14   15 ar
  26   14   36 1
  27   15   16 ar
  28   15   37 1
  29   16   17 ar
  30   16   19 1
  31   17   18 ar
  32   17   38 1
  33   18   39 1
  34   19   20 1
  35   20   21 2
  36   20   24 1
  37   21   22 1
  38   22   23 2
  39   22   27 1
  40   23   24 1
  41   23   26 1
  42   24   25 1
  43   25   40 1
  44   25   41 1
  45   25   42 1

#	End of record

