#	Name: ASD03430845
#	Creating user name:	WinNT
#	Creation time:	15. 06. 2019 20:41

#	Modifying user name:	WinNT
#	Modification time:	15. 06. 2019 20:41

#	Program:	/corina/corina34_cracker 3.40 0067  02.08.2006

@<TRIPOS>MOLECULE
ASD03430845
  50   55    0    0    0
SMALL
NO_CHARGES


@<TRIPOS>ATOM
   1 O1            -0.0173     1.4276     0.0099 O.3     
   2 C2             0.0021    -0.0041     0.0020 C.3     
   3 C3             1.0264    -0.4757     1.0429 C.3     
   4 O4             2.3071     0.0540     0.6845 O.3     
   5 C5             2.3518     1.3716     0.3438 C.ar    
   6 C6             1.1909     2.0554     0.0017 C.ar    
   7 C7             3.5695     2.0311     0.3424 C.ar    
   8 C8             3.6433     3.3756    -0.0073 C.ar    
   9 C9             2.4771     4.0451    -0.3655 C.ar    
  10 C10            1.2621     3.3931    -0.3554 C.ar    
  11 O11            4.7234     4.2072    -0.0514 O.3     
  12 C12            2.8810     5.4506    -0.7223 C.3     
  13 C13            4.4065     5.3546    -0.8625 C.3     
  14 N14            1.5530     7.0435    -1.6838 N.am    
  15 C15            2.2338     5.9221    -1.9931 C.2     
  16 C16            2.4754     6.4460     0.3234 C.ar    
  17 C17            2.7370     6.5724     1.6695 C.ar    
  18 C18            2.2039     7.6311     2.3829 C.ar    
  19 C19            1.4075     8.5621     1.7412 C.ar    
  20 C20            1.1423     8.4400     0.3932 C.ar    
  21 C21            1.6748     7.3775    -0.3328 C.ar    
  22 O22            2.3089     5.3967    -3.0836 O.2     
  23 C23            0.7759     7.8216    -2.6517 C.3     
  24 O24           -1.2880     7.5380    -1.4224 O.3     
  25 C25           -0.6624     7.3011    -2.6872 C.3     
  26 C26           -1.4453     8.0344    -3.7801 C.3     
  27 O27           -2.8148     7.6232    -3.7328 O.3     
  28 C28           -3.4404     7.8601    -2.4680 C.3     
  29 C29           -2.6576     7.1267    -1.3751 C.3     
  30 H30           -0.9858    -0.3866     0.2587 H       
  31 H31            0.2904    -0.3624    -0.9862 H       
  32 H32            0.7414    -0.1119     2.0301 H       
  33 H33            1.0682    -1.5649     1.0500 H       
  34 H34            4.4682     1.4980     0.6151 H       
  35 H35            0.3629     3.9263    -0.6267 H       
  36 H36            4.8882     6.2505    -0.4707 H       
  37 H37            4.6897     5.1844    -1.9012 H       
  38 H38            3.3587     5.8441     2.1689 H       
  39 H39            2.4088     7.7301     3.4386 H       
  40 H40            0.9911     9.3883     2.2983 H       
  41 H41            0.5194     9.1709    -0.1010 H       
  42 H42            0.7753     8.8711    -2.3574 H       
  43 H43            1.2229     7.7218    -3.6408 H       
  44 H44           -0.6576     6.2314    -2.8966 H       
  45 H45           -1.3819     9.1099    -3.6143 H       
  46 H46           -1.0250     7.7899    -4.7557 H       
  47 H47           -3.4442     8.9297    -2.2581 H       
  48 H48           -4.4651     7.4893    -2.4933 H       
  49 H49           -2.7209     6.0513    -1.5409 H       
  50 H50           -3.0778     7.3713    -0.3995 H       
@<TRIPOS>BOND
   1    1    2 1
   2    1    6 1
   3    2    3 1
   4    2   30 1
   5    2   31 1
   6    3    4 1
   7    3   32 1
   8    3   33 1
   9    4    5 1
  10    5    6 ar
  11    5    7 ar
  12    6   10 ar
  13    7    8 ar
  14    7   34 1
  15    8    9 ar
  16    8   11 1
  17    9   10 ar
  18    9   12 1
  19   10   35 1
  20   11   13 1
  21   12   13 1
  22   12   15 1
  23   12   16 1
  24   13   36 1
  25   13   37 1
  26   14   15 am
  27   14   21 1
  28   14   23 1
  29   15   22 2
  30   16   17 ar
  31   16   21 ar
  32   17   18 ar
  33   17   38 1
  34   18   19 ar
  35   18   39 1
  36   19   20 ar
  37   19   40 1
  38   20   21 ar
  39   20   41 1
  40   23   25 1
  41   23   42 1
  42   23   43 1
  43   24   25 1
  44   24   29 1
  45   25   26 1
  46   25   44 1
  47   26   27 1
  48   26   45 1
  49   26   46 1
  50   27   28 1
  51   28   29 1
  52   28   47 1
  53   28   48 1
  54   29   49 1
  55   29   50 1

#	End of record

