#	Name: ASD03450008
#	Creating user name:	WinNT
#	Creation time:	15. 06. 2019 20:42

#	Modifying user name:	WinNT
#	Modification time:	15. 06. 2019 20:42

#	Program:	/corina/corina34_cracker 3.40 0067  02.08.2006

@<TRIPOS>MOLECULE
ASD03450008
  59   63    0    0    0
SMALL
NO_CHARGES


@<TRIPOS>ATOM
   1 N1             0.0170     1.3795     0.5893 N.am    
   2 C2            -0.0190     0.0485     0.4238 C.2     
   3 N3             1.0696    -0.6795     0.1225 N.am    
   4 C4             2.3126    -0.0664    -0.0340 C.2     
   5 C5             2.3936     1.3421     0.1330 C.2     
   6 C6             1.1675     2.0740     0.4605 C.2     
   7 C7             0.9497    -2.1302    -0.0426 C.3     
   8 C8             0.6407    -2.4532    -1.5058 C.3     
   9 C9             0.6388    -3.9704    -1.7038 C.3     
  10 C10           -0.7332    -1.8892    -1.8734 C.3     
  11 O11           -1.0836    -0.5243     0.5524 O.2     
  12 C12           -1.2201     2.0953     0.9108 C.3     
  13 O13            1.1857     3.2811     0.6130 O.2     
  14 C14            3.7220     1.7070    -0.0714 C.2     
  15 N15            4.4061     0.5648    -0.3488 N.pl3   
  16 N16            3.5082    -0.5092    -0.3177 N.2     
  17 C17            4.2777     3.0655    -0.0015 C.2     
  18 N18            5.3858     4.8875    -0.4686 N.2     
  19 C19            4.7573     5.1029     0.6569 C.2     
  20 C20            5.8405     0.4735    -0.6327 C.3     
  21 C21            6.6050     0.3924     0.6634 C.ar    
  22 C22            7.2160     1.4990     1.1675 C.ar    
  23 C23            7.9275     1.4433     2.3647 C.ar    
  24 C24            8.0313     0.2808     3.0647 C.ar    
  25 C25            7.4132    -0.8828     2.5758 C.ar    
  26 C26            6.6857    -0.8250     1.3609 C.ar    
  27 N27            4.0568     3.9989     0.9897 N.pl3   
  28 C28            6.0629    -1.9873     0.8748 C.ar    
  29 C29            6.1620    -3.1485     1.5775 C.ar    
  30 C30            6.8728    -3.2041     2.7752 C.ar    
  31 C31            7.4983    -2.1015     3.2705 C.ar    
  32 C32            5.1200     3.6524    -0.9021 C.2     
  33 C33            3.2194     3.8246     2.1790 C.3     
  34 H34            1.8867    -2.6072     0.2448 H       
  35 H35            0.1437    -2.5025     0.5898 H       
  36 H36            1.4007    -2.0043    -2.1453 H       
  37 H37           -0.1213    -4.4192    -1.0643 H       
  38 H38            0.4186    -4.2005    -2.7462 H       
  39 H39            1.6175    -4.3722    -1.4419 H       
  40 H40           -1.4932    -2.3381    -1.2339 H       
  41 H41           -0.7318    -0.8083    -1.7324 H       
  42 H42           -0.9533    -2.1193    -2.9159 H       
  43 H43           -1.3414     2.1432     1.9930 H       
  44 H44           -1.1708     3.1060     0.5057 H       
  45 H45           -2.0685     1.5694     0.4730 H       
  46 H46            4.7930     6.0183     1.2291 H       
  47 H47            6.0372    -0.4189    -1.2270 H       
  48 H48            6.1580     1.3565    -1.1872 H       
  49 H49            7.1490     2.4343     0.6316 H       
  50 H50            8.4038     2.3360     2.7425 H       
  51 H51            8.5862     0.2525     3.9908 H       
  52 H52            5.5082    -1.9591    -0.0514 H       
  53 H53            5.6825    -4.0403     1.2017 H       
  54 H54            6.9358    -4.1382     3.3135 H       
  55 H55            8.0462    -2.1597     4.1994 H       
  56 H56            5.5030     3.1986    -1.8042 H       
  57 H57            3.8411     3.5148     3.0190 H       
  58 H58            2.7282     4.7676     2.4189 H       
  59 H59            2.4657     3.0616     1.9840 H       
@<TRIPOS>BOND
   1    1    2 am
   2    1    6 am
   3    1   12 1
   4    2    3 am
   5    2   11 2
   6    3    4 1
   7    3    7 1
   8    4    5 1
   9    4   16 2
  10    5    6 1
  11    5   14 2
  12    6   13 2
  13    7    8 1
  14    7   34 1
  15    7   35 1
  16    8    9 1
  17    8   10 1
  18    8   36 1
  19    9   37 1
  20    9   38 1
  21    9   39 1
  22   10   40 1
  23   10   41 1
  24   10   42 1
  25   12   43 1
  26   12   44 1
  27   12   45 1
  28   14   15 1
  29   14   17 1
  30   15   16 1
  31   15   20 1
  32   17   27 1
  33   17   32 2
  34   18   19 2
  35   18   32 1
  36   19   27 1
  37   19   46 1
  38   20   21 1
  39   20   47 1
  40   20   48 1
  41   21   22 ar
  42   21   26 ar
  43   22   23 ar
  44   22   49 1
  45   23   24 ar
  46   23   50 1
  47   24   25 ar
  48   24   51 1
  49   25   26 ar
  50   25   31 ar
  51   26   28 ar
  52   27   33 1
  53   28   29 ar
  54   28   52 1
  55   29   30 ar
  56   29   53 1
  57   30   31 ar
  58   30   54 1
  59   31   55 1
  60   32   56 1
  61   33   57 1
  62   33   58 1
  63   33   59 1

#	End of record

