#	Name: ASD01913362
#	Creating user name:	WinNT
#	Creation time:	15. 06. 2019 20:01

#	Modifying user name:	WinNT
#	Modification time:	15. 06. 2019 20:01

#	Program:	/corina/corina34_cracker 3.40 0067  02.08.2006

@<TRIPOS>MOLECULE
ASD01913362
  26   28    0    0    0
SMALL
NO_CHARGES


@<TRIPOS>ATOM
   1 C1            -0.0164     1.3610     0.0095 C.2     
   2 C2             0.0021    -0.0041     0.0020 C.2     
   3 C3             1.2384    -0.6989    -0.0136 C.2     
   4 C4             2.4001     0.0019    -0.0209 C.2     
   5 C5             2.3576     1.4108    -0.0130 C.2     
   6 N6             1.1495     2.0653     0.0022 N.pl3   
   7 C7             3.3295     2.3962    -0.0166 C.2     
   8 N8             2.7272     3.5767    -0.0042 N.2     
   9 N9             1.4480     3.4336     0.0071 N.2     
  10 C10           -1.2289    -0.7357     0.0104 C.1     
  11 C11           -2.2381    -1.3354     0.0172 C.1     
  12 C12           -3.4691    -2.0670     0.0256 C.ar    
  13 C13           -3.4555    -3.4644     0.0179 C.ar    
  14 C14           -4.6450    -4.1622     0.0260 C.ar    
  15 C15           -5.8713    -2.0984     0.0550 C.ar    
  16 C16           -4.6898    -1.3871     0.0472 C.ar    
  17 C17           -5.8501    -3.4820     0.0416 C.ar    
  18 H18           -0.9606     1.8852     0.0168 H       
  19 H19            1.2550    -1.7787    -0.0192 H       
  20 H20            3.3484    -0.5148    -0.0325 H       
  21 H21            4.3968     2.2313    -0.0273 H       
  22 H22           -2.5157    -3.9965     0.0054 H       
  23 H23           -4.6361    -5.2421     0.0198 H       
  24 H24           -6.8155    -1.5744     0.0721 H       
  25 H25           -4.7079    -0.3073     0.0580 H       
  26 H26           -6.7785    -4.0338     0.0479 H       
@<TRIPOS>BOND
   1    1    2 2
   2    1    6 1
   3    1   18 1
   4    2    3 1
   5    2   10 1
   6    3    4 2
   7    3   19 1
   8    4    5 1
   9    4   20 1
  10    5    6 1
  11    5    7 2
  12    6    9 1
  13    7    8 1
  14    7   21 1
  15    8    9 2
  16   10   11 3
  17   11   12 1
  18   12   13 ar
  19   12   16 ar
  20   13   14 ar
  21   13   22 1
  22   14   17 ar
  23   14   23 1
  24   15   16 ar
  25   15   17 ar
  26   15   24 1
  27   16   25 1
  28   17   26 1

#	End of record

