#	Name: ASD04910085
#	Creating user name:	WinNT
#	Creation time:	15. 06. 2019 20:55

#	Modifying user name:	WinNT
#	Modification time:	15. 06. 2019 20:55

#	Program:	/corina/corina34_cracker 3.40 0067  02.08.2006

@<TRIPOS>MOLECULE
ASD04910085
  26   27    0    0    0
SMALL
NO_CHARGES


@<TRIPOS>ATOM
   1 N1            -0.0169     1.3967     0.0097 N.pl3   
   2 N2             0.0021    -0.0041     0.0020 N.2     
   3 C3             1.2508    -0.3963    -0.0120 C.2     
   4 C4             2.0667     0.7401    -0.0137 C.2     
   5 C5             1.2638     1.8296    -0.0002 C.2     
   6 C6             3.5736     0.7495    -0.0276 C.3     
   7 F7             4.0481    -0.5665    -0.0393 F       
   8 F8             4.0253     1.4183    -1.1704 F       
   9 F9             4.0464     1.4055     1.1140 F       
  10 C10           -1.1622     2.2068     0.0198 C.ar    
  11 C11           -2.4234     1.6263     0.0233 C.ar    
  12 C12           -3.5503     2.4240     0.0332 C.ar    
  13 C13           -3.4224     3.8055     0.0395 C.ar    
  14 C14           -2.1623     4.3861     0.0354 C.ar    
  15 C15           -1.0349     3.5892     0.0319 C.ar    
  16 O16           -4.5322     4.5905     0.0491 O.3     
  17 C17           -4.3266     6.0047     0.0552 C.3     
  18 H18            1.5924    -1.4208    -0.0205 H       
  19 H19            1.5880     2.8598     0.0019 H       
  20 H20           -2.5230     0.5509     0.0181 H       
  21 H21           -4.5314     1.9726     0.0356 H       
  22 H22           -2.0634     5.4616     0.0400 H       
  23 H23           -0.0540     4.0412     0.0336 H       
  24 H24           -3.7612     6.2858     0.9437 H       
  25 H25           -3.7704     6.2948    -0.8362 H       
  26 H26           -5.2912     6.5121     0.0628 H       
@<TRIPOS>BOND
   1    1    2 1
   2    1    5 1
   3    1   10 1
   4    2    3 2
   5    3    4 1
   6    3   18 1
   7    4    5 2
   8    4    6 1
   9    5   19 1
  10    6    7 1
  11    6    8 1
  12    6    9 1
  13   10   11 ar
  14   10   15 ar
  15   11   12 ar
  16   11   20 1
  17   12   13 ar
  18   12   21 1
  19   13   14 ar
  20   13   16 1
  21   14   15 ar
  22   14   22 1
  23   15   23 1
  24   16   17 1
  25   17   24 1
  26   17   25 1
  27   17   26 1

#	End of record

