#	Name: ASD01841058
#	Creating user name:	WinNT
#	Creation time:	15. 06. 2019 19:38

#	Modifying user name:	WinNT
#	Modification time:	15. 06. 2019 19:38

#	Program:	/corina/corina34_cracker 3.40 0067  02.08.2006

@<TRIPOS>MOLECULE
ASD01841058
  36   38    0    0    0
SMALL
NO_CHARGES


@<TRIPOS>ATOM
   1 S1            -0.0200     1.6505     0.0118 S.o2    
   2 N2            -0.1884     0.0033     0.0370 N.am    
   3 S3             0.1296    -2.4605     1.3016 S.3     
   4 C4             0.3399    -0.7290     1.0819 C.2     
   5 N5             1.0575    -0.2404     2.0337 N.2     
   6 C6             1.5030    -1.0864     2.9855 C.ar    
   7 C7             1.0965    -2.4055     2.7736 C.ar    
   8 C8             1.4696    -3.4109     3.6638 C.ar    
   9 C9             2.2436    -3.1134     4.7634 C.ar    
  10 C10            2.6556    -1.8087     4.9892 C.ar    
  11 C11            2.2983    -0.8022     4.1203 C.ar    
  12 C12            1.0235    -4.8300     3.4223 C.3     
  13 O13            2.7105     0.4718     4.3552 O.3     
  14 C14            3.5110     0.6906     5.5185 C.3     
  15 C15           -0.8988     2.2859     1.4006 C.ar    
  16 O16            1.3552     1.9170     0.2510 O.2     
  17 O17           -0.7106     2.1069    -1.1431 O.2     
  18 C18           -2.2728     2.1345     1.4784 C.ar    
  19 C19           -2.9629     2.6334     2.5699 C.ar    
  20 C20           -2.2783     3.2830     3.5822 C.ar    
  21 C21           -0.9039     3.4333     3.5022 C.ar    
  22 C22           -0.2154     2.9303     2.4148 C.ar    
  23 F23           -2.9506     3.7708     4.6477 F       
  24 F24           -2.9398     1.5005     0.4893 F       
  25 H25           -0.6581    -0.4473    -0.6823 H       
  26 H26            2.5294    -3.8964     5.4502 H       
  27 H27            3.2621    -1.5804     5.8531 H       
  28 H28            1.7656    -5.3453     2.8125 H       
  29 H29            0.9170    -5.3448     4.3772 H       
  30 H30            0.0654    -4.8262     2.9027 H       
  31 H31            3.7709     1.7470     5.5873 H       
  32 H32            2.9506     0.3958     6.4058 H       
  33 H33            4.4219     0.0960     5.4499 H       
  34 H34           -4.0348     2.5160     2.6312 H       
  35 H35           -0.3694     3.9402     4.2920 H       
  36 H36            0.8564     3.0479     2.3532 H       
@<TRIPOS>BOND
   1    1    2 am
   2    1   15 1
   3    1   16 2
   4    1   17 2
   5    2    4 1
   6    2   25 1
   7    3    4 1
   8    3    7 1
   9    4    5 2
  10    5    6 1
  11    6    7 ar
  12    6   11 ar
  13    7    8 ar
  14    8    9 ar
  15    8   12 1
  16    9   10 ar
  17    9   26 1
  18   10   11 ar
  19   10   27 1
  20   11   13 1
  21   12   28 1
  22   12   29 1
  23   12   30 1
  24   13   14 1
  25   14   31 1
  26   14   32 1
  27   14   33 1
  28   15   18 ar
  29   15   22 ar
  30   18   19 ar
  31   18   24 1
  32   19   20 ar
  33   19   34 1
  34   20   21 ar
  35   20   23 1
  36   21   22 ar
  37   21   35 1
  38   22   36 1

#	End of record

