#	Name: ASD00870013
#	Creating user name:	WinNT
#	Creation time:	15. 06. 2019 18:53

#	Modifying user name:	WinNT
#	Modification time:	15. 06. 2019 18:53

#	Program:	/corina/corina34_cracker 3.40 0067  02.08.2006

@<TRIPOS>MOLECULE
ASD00870013
  32   34    0    0    0
SMALL
NO_CHARGES


@<TRIPOS>ATOM
   1 O1             0.0021    -0.0041     0.0020 O.2     
   2 S2            -0.0172     1.4168     0.0098 S.o2    
   3 O3             1.1617     2.2101     0.0028 O.2     
   4 O4            -0.8288     1.8423    -1.2054 O.3     
   5 C5            -0.9297     1.8941     1.4396 C.ar    
   6 C6            -1.8420     1.0169     1.9962 C.ar    
   7 C7            -2.5666     1.3770     3.1199 C.ar    
   8 C8            -2.3756     2.6293     3.6935 C.ar    
   9 C9            -3.1397     3.0319     4.8947 C.2     
  10 O10           -4.1094     2.3915     5.2496 O.2     
  11 C11           -2.7087     4.2231     5.6589 C.ar    
  12 C12           -1.7802     5.1160     5.0922 C.ar    
  13 C13           -1.3742     6.2361     5.8094 C.ar    
  14 C14           -1.8856     6.4651     7.0756 C.ar    
  15 C15           -2.7975     5.5877     7.6326 C.ar    
  16 C16           -3.2125     4.4678     6.9317 C.ar    
  17 S17           -3.4358     5.8963     9.2456 S.o2    
  18 O18           -3.8631     4.6405     9.7552 O.2     
  19 O19           -2.4818     6.7183     9.9041 O.2     
  20 O20           -4.6901     6.7421     9.0796 O.3     
  21 C21           -1.2443     4.8540     3.7384 C.2     
  22 O22           -0.6455     5.7225     3.1356 O.2     
  23 C23           -1.4468     3.5221     3.1270 C.ar    
  24 C24           -0.7239     3.1430     2.0012 C.ar    
  25 H25           -0.4136     1.6251    -2.0513 H       
  26 H26           -1.9907     0.0442     1.5513 H       
  27 H27           -3.2784     0.6875     3.5493 H       
  28 H28           -0.6623     6.9255     5.3799 H       
  29 H29           -1.5697     7.3350     7.6323 H       
  30 H30           -3.9256     3.7867     7.3722 H       
  31 H31           -5.1237     6.9706     9.9132 H       
  32 H32           -0.0070     3.8221     1.5638 H       
@<TRIPOS>BOND
   1    1    2 2
   2    2    3 2
   3    2    4 1
   4    2    5 1
   5    4   25 1
   6    5    6 ar
   7    5   24 ar
   8    6    7 ar
   9    6   26 1
  10    7    8 ar
  11    7   27 1
  12    8    9 1
  13    8   23 ar
  14    9   10 2
  15    9   11 1
  16   11   12 ar
  17   11   16 ar
  18   12   13 ar
  19   12   21 1
  20   13   14 ar
  21   13   28 1
  22   14   15 ar
  23   14   29 1
  24   15   16 ar
  25   15   17 1
  26   16   30 1
  27   17   18 2
  28   17   19 2
  29   17   20 1
  30   20   31 1
  31   21   22 2
  32   21   23 1
  33   23   24 ar
  34   24   32 1

#	End of record

