#	Name: ASD00170763
#	Creating user name:	WinNT
#	Creation time:	15. 06. 2019 18:32

#	Modifying user name:	WinNT
#	Modification time:	15. 06. 2019 18:32

#	Program:	/corina/corina34_cracker 3.40 0067  02.08.2006

@<TRIPOS>MOLECULE
ASD00170763
  64   68    0    0    0
SMALL
NO_CHARGES


@<TRIPOS>ATOM
   1 C1             0.7089    -0.4241    -0.7690 C.3     
   2 O2            -0.4495     0.1659    -1.3623 O.3     
   3 C3            -1.6216    -0.5094    -1.2314 C.ar    
   4 C4            -2.7848     0.0090    -1.7845 C.ar    
   5 C5            -3.9758    -0.6732    -1.6544 C.ar    
   6 C6            -4.0111    -1.8868    -0.9655 C.ar    
   7 C7            -2.8394    -2.4046    -0.4108 C.ar    
   8 C8            -1.6514    -1.7187    -0.5500 C.ar    
   9 C9            -5.2860    -2.6214    -0.8232 C.2     
  10 S10           -5.5138    -4.3212    -1.2017 S.3     
  11 C11           -7.1598    -4.2603    -0.7581 C.2     
  12 C12           -7.4979    -2.9931    -0.3438 C.2     
  13 C13           -6.4332    -2.0876    -0.3812 C.2     
  14 C14           -6.5660    -0.6431     0.0271 C.3     
  15 C15           -6.1846    -0.4926     1.5011 C.3     
  16 C16           -4.7094    -0.8541     1.6857 C.3     
  17 C17           -6.4141     0.9544     1.9422 C.3     
  18 C18           -7.0489    -1.4276     2.3495 C.3     
  19 C19           -8.8460    -2.6279     0.1008 C.2     
  20 O20           -9.1925    -2.8570     1.2451 O.2     
  21 C21           -9.7849    -1.9813    -0.8404 C.ar    
  22 C22          -11.0328    -1.5415    -0.3944 C.ar    
  23 C23          -11.9041    -0.9386    -1.2769 C.ar    
  24 C24          -11.5434    -0.7690    -2.6035 C.ar    
  25 C25          -10.3070    -1.2036    -3.0520 C.ar    
  26 C26           -9.4250    -1.8027    -2.1777 C.ar    
  27 Cl27         -12.6457    -0.0092    -3.7087 Cl      
  28 N28           -8.0337    -5.3364    -0.8084 N.am    
  29 C29           -8.8405    -5.6136    -1.8485 C.2     
  30 O30           -8.9178    -4.9715    -2.8765 O.2     
  31 C31           -9.6168    -6.8304    -1.5312 C.ar    
  32 C32           -9.2007    -7.2286    -0.2442 C.ar    
  33 C33           -8.1817    -6.2433     0.1740 C.2     
  34 O34           -7.5837    -6.2472     1.2310 O.2     
  35 C35           -9.7548    -8.3558     0.3411 C.ar    
  36 C36          -10.7149    -9.0842    -0.3438 C.ar    
  37 C37          -11.1229    -8.6938    -1.6056 C.ar    
  38 C38          -10.5779    -7.5683    -2.2036 C.ar    
  39 H39            1.5737     0.2152    -0.9466 H       
  40 H40            0.5520    -0.5332     0.3041 H       
  41 H41            0.8847    -1.4044    -1.2121 H       
  42 H42           -2.7566     0.9481    -2.3171 H       
  43 H43           -4.8802    -0.2691    -2.0847 H       
  44 H44           -2.8626    -3.3430     0.1232 H       
  45 H45           -0.7445    -2.1186    -0.1212 H       
  46 H46           -5.9032    -0.0304    -0.5841 H       
  47 H47           -7.5964    -0.3181    -0.1166 H       
  48 H48           -4.1016    -0.2599     1.0034 H       
  49 H49           -4.4103    -0.6467     2.7132 H       
  50 H50           -4.5654    -1.9132     1.4722 H       
  51 H51           -7.4651     1.2119     1.8107 H       
  52 H52           -6.1424     1.0616     2.9923 H       
  53 H53           -5.7984     1.6205     1.3377 H       
  54 H54           -6.8853    -2.4584     2.0353 H       
  55 H55           -6.7772    -1.3204     3.3997 H       
  56 H56           -8.0998    -1.1700     2.2180 H       
  57 H57          -11.3152    -1.6735     0.6397 H       
  58 H58          -12.8697    -0.5984    -0.9332 H       
  59 H59          -10.0316    -1.0690    -4.0876 H       
  60 H60           -8.4612    -2.1411    -2.5285 H       
  61 H61           -9.4397    -8.6658     1.3265 H       
  62 H62          -11.1470    -9.9631     0.1114 H       
  63 H63          -11.8717    -9.2697    -2.1291 H       
  64 H64          -10.9003    -7.2681    -3.1896 H       
@<TRIPOS>BOND
   1    1    2 1
   2    1   39 1
   3    1   40 1
   4    1   41 1
   5    2    3 1
   6    3    4 ar
   7    3    8 ar
   8    4    5 ar
   9    4   42 1
  10    5    6 ar
  11    5   43 1
  12    6    7 ar
  13    6    9 1
  14    7    8 ar
  15    7   44 1
  16    8   45 1
  17    9   10 1
  18    9   13 2
  19   10   11 1
  20   11   12 2
  21   11   28 1
  22   12   13 1
  23   12   19 1
  24   13   14 1
  25   14   15 1
  26   14   46 1
  27   14   47 1
  28   15   16 1
  29   15   17 1
  30   15   18 1
  31   16   48 1
  32   16   49 1
  33   16   50 1
  34   17   51 1
  35   17   52 1
  36   17   53 1
  37   18   54 1
  38   18   55 1
  39   18   56 1
  40   19   20 2
  41   19   21 1
  42   21   22 ar
  43   21   26 ar
  44   22   23 ar
  45   22   57 1
  46   23   24 ar
  47   23   58 1
  48   24   25 ar
  49   24   27 1
  50   25   26 ar
  51   25   59 1
  52   26   60 1
  53   28   29 am
  54   28   33 am
  55   29   30 2
  56   29   31 1
  57   31   32 ar
  58   31   38 ar
  59   32   33 1
  60   32   35 ar
  61   33   34 2
  62   35   36 ar
  63   35   61 1
  64   36   37 ar
  65   36   62 1
  66   37   38 ar
  67   37   63 1
  68   38   64 1

#	End of record

