#	Name: ASD02030068
#	Creating user name:	WinNT
#	Creation time:	15. 06. 2019 20:14

#	Modifying user name:	WinNT
#	Modification time:	15. 06. 2019 20:14

#	Program:	/corina/corina34_cracker 3.40 0067  02.08.2006

@<TRIPOS>MOLECULE
ASD02030068
  56   59    0    0    0
SMALL
NO_CHARGES


@<TRIPOS>ATOM
   1 C1            -0.0108     1.3841     0.0181 C.ar    
   2 C2             0.0041    -0.0075     0.0077 C.ar    
   3 C3             1.2149    -0.6936    -0.0048 C.ar    
   4 C4             2.4022     0.0025    -0.0067 C.ar    
   5 C5             2.3910     1.4006     0.0038 C.ar    
   6 C6             1.1728     2.0866     0.0162 C.ar    
   7 C7             3.6610     2.1498     0.0022 C.2     
   8 O8             3.6484     3.4972     0.0123 O.3     
   9 O9             4.7189     1.5522    -0.0083 O.2     
  10 C10            4.9359     4.1685     0.0100 C.3     
  11 C11            5.4077     4.4410     1.4599 C.3     
  12 C12            6.3895     5.6259     1.2829 C.3     
  13 C13            5.7360     6.4989     0.1918 C.3     
  14 C14            4.8117     5.5723    -0.6175 C.3     
  15 N15            5.2396     5.5355    -2.0181 N.am    
  16 C16            4.7928     6.4667    -2.8840 C.2     
  17 C17            5.2255     6.4295    -4.3004 C.ar    
  18 O18            4.0350     7.3369    -2.5028 O.2     
  19 C19            4.7739     7.3858    -5.2149 C.ar    
  20 C20            5.2027     7.3135    -6.5262 C.ar    
  21 N21            6.0247     6.3605    -6.9180 N.ar    
  22 C22            6.4741     5.4398    -6.0886 C.ar    
  23 C23            6.1013     5.4406    -4.7583 C.ar    
  24 N24           -1.1958    -0.7154     0.0101 N.am    
  25 C25           -1.2937    -1.8780    -0.6647 C.2     
  26 O26           -0.3683    -2.2606    -1.3538 O.2     
  27 C27           -2.5260    -2.6874    -0.5669 C.ar    
  28 C28           -3.5902    -2.2502     0.2239 C.ar    
  29 C29           -2.6321    -3.8892    -1.2694 C.ar    
  30 C30           -3.7888    -4.6422    -1.1732 C.ar    
  31 C31           -4.8414    -4.2019    -0.3794 C.ar    
  32 C32           -4.7394    -3.0083     0.3132 C.ar    
  33 O33           -3.8961    -5.8129    -1.8556 O.3     
  34 Cl34          -6.2916    -5.1489    -0.2621 Cl      
  35 H35           -0.9521     1.9134     0.0232 H       
  36 H36            1.2229    -1.7736    -0.0125 H       
  37 H37            3.3415    -0.5305    -0.0160 H       
  38 H38            1.1605     3.1665     0.0240 H       
  39 H39            5.6747     3.5728    -0.5260 H       
  40 H40            4.5673     4.7269     2.0924 H       
  41 H41            5.9218     3.5711     1.8687 H       
  42 H42            6.4838     6.1854     2.2135 H       
  43 H43            7.3642     5.2675     0.9517 H       
  44 H44            5.1541     7.2977     0.6516 H       
  45 H45            6.5028     6.9212    -0.4575 H       
  46 H46            3.7814     5.9215    -0.5505 H       
  47 H47            5.8445     4.8410    -2.3224 H       
  48 H48            4.0998     8.1690    -4.9011 H       
  49 H49            4.8594     8.0476    -7.2401 H       
  50 H50            7.1464     4.6771    -6.4529 H       
  51 H51            6.4737     4.6833    -4.0843 H       
  52 H52           -1.9608    -0.3716     0.4974 H       
  53 H53           -3.5137    -1.3191     0.7657 H       
  54 H54           -1.8138    -4.2299    -1.8864 H       
  55 H55           -5.5602    -2.6712     0.9288 H       
  56 H56           -3.5873    -6.5854    -1.3625 H       
@<TRIPOS>BOND
   1    1    2 ar
   2    1    6 ar
   3    1   35 1
   4    2    3 ar
   5    2   24 1
   6    3    4 ar
   7    3   36 1
   8    4    5 ar
   9    4   37 1
  10    5    6 ar
  11    5    7 1
  12    6   38 1
  13    7    8 1
  14    7    9 2
  15    8   10 1
  16   10   11 1
  17   10   14 1
  18   10   39 1
  19   11   12 1
  20   11   40 1
  21   11   41 1
  22   12   13 1
  23   12   42 1
  24   12   43 1
  25   13   14 1
  26   13   44 1
  27   13   45 1
  28   14   15 1
  29   14   46 1
  30   15   16 am
  31   15   47 1
  32   16   17 1
  33   16   18 2
  34   17   19 ar
  35   17   23 ar
  36   19   20 ar
  37   19   48 1
  38   20   21 ar
  39   20   49 1
  40   21   22 ar
  41   22   23 ar
  42   22   50 1
  43   23   51 1
  44   24   25 am
  45   24   52 1
  46   25   26 2
  47   25   27 1
  48   27   28 ar
  49   27   29 ar
  50   28   32 ar
  51   28   53 1
  52   29   30 ar
  53   29   54 1
  54   30   31 ar
  55   30   33 1
  56   31   32 ar
  57   31   34 1
  58   32   55 1
  59   33   56 1

#	End of record

