#	Name: ASD00990073
#	Creating user name:	WinNT
#	Creation time:	15. 06. 2019 18:54

#	Modifying user name:	WinNT
#	Modification time:	15. 06. 2019 18:54

#	Program:	/corina/corina34_cracker 3.40 0067  02.08.2006

@<TRIPOS>MOLECULE
ASD00990073
  41   44    0    0    0
SMALL
NO_CHARGES


@<TRIPOS>ATOM
   1 C1            -0.0167     1.3771     0.0096 C.ar    
   2 C2             0.0021    -0.0041     0.0020 C.ar    
   3 C3             1.2101    -0.6780    -0.0131 C.ar    
   4 C4             2.4270     0.0045    -0.0211 C.ar    
   5 C5             2.3843     1.4073    -0.0131 C.ar    
   6 C6             1.1807     2.0741     0.0019 C.ar    
   7 S7             1.6141    -2.4002    -0.0262 S.3     
   8 C8             3.3660    -2.1379    -0.0416 C.2     
   9 N9             3.5427    -0.8131    -0.0361 N.am    
  10 Cl10           1.1623     3.8100     0.0120 Cl      
  11 C11            4.8903    -0.2387    -0.0454 C.3     
  12 C12            5.3396    -0.0347    -1.4694 C.2     
  13 N13            6.5564     0.4861    -1.7240 N.am    
  14 C14            6.9931     0.6843    -3.1083 C.3     
  15 O15            4.6064    -0.3392    -2.3861 O.2     
  16 C16            7.4421     0.8539    -0.6166 C.3     
  17 C17            6.5859     2.0593    -3.5715 C.2     
  18 N18            7.3820     3.1618    -3.5343 N.pl3   
  19 C19            6.6489     4.2151    -4.0433 C.ar    
  20 C20            5.3918     3.6856    -4.3801 C.ar    
  21 N21            5.4235     2.3639    -4.0705 N.2     
  22 C22            6.9112     5.5615    -4.2574 C.ar    
  23 C23            5.9347     6.3695    -4.7996 C.ar    
  24 C24            4.6931     5.8461    -5.1316 C.ar    
  25 C25            4.4172     4.5238    -4.9282 C.ar    
  26 O26            4.2335    -2.9916    -0.0548 O.2     
  27 H27           -0.9565     1.9090     0.0170 H       
  28 H28           -0.9255    -0.5573     0.0083 H       
  29 H29            3.3063     1.9696    -0.0189 H       
  30 H30            4.8803     0.7200     0.4732 H       
  31 H31            5.5781    -0.9174     0.4589 H       
  32 H32            8.0775     0.5884    -3.1644 H       
  33 H33            6.5284    -0.0667    -3.7470 H       
  34 H34            8.0647    -0.0003    -0.3503 H       
  35 H35            8.0774     1.6858    -0.9204 H       
  36 H36            6.8433     1.1497     0.2448 H       
  37 H37            8.2953     3.2007    -3.2099 H       
  38 H38            7.8756     5.9739    -4.0001 H       
  39 H39            6.1373     7.4171    -4.9667 H       
  40 H40            3.9372     6.4908    -5.5554 H       
  41 H41            3.4476     4.1269    -5.1904 H       
@<TRIPOS>BOND
   1    1    2 ar
   2    1    6 ar
   3    1   27 1
   4    2    3 ar
   5    2   28 1
   6    3    4 ar
   7    3    7 1
   8    4    5 ar
   9    4    9 1
  10    5    6 ar
  11    5   29 1
  12    6   10 1
  13    7    8 1
  14    8    9 am
  15    8   26 2
  16    9   11 1
  17   11   12 1
  18   11   30 1
  19   11   31 1
  20   12   13 am
  21   12   15 2
  22   13   14 1
  23   13   16 1
  24   14   17 1
  25   14   32 1
  26   14   33 1
  27   16   34 1
  28   16   35 1
  29   16   36 1
  30   17   18 1
  31   17   21 2
  32   18   19 1
  33   18   37 1
  34   19   20 ar
  35   19   22 ar
  36   20   21 1
  37   20   25 ar
  38   22   23 ar
  39   22   38 1
  40   23   24 ar
  41   23   39 1
  42   24   25 ar
  43   24   40 1
  44   25   41 1

#	End of record

