#	Name: ASD00170685
#	Creating user name:	WinNT
#	Creation time:	15. 06. 2019 18:32

#	Modifying user name:	WinNT
#	Modification time:	15. 06. 2019 18:32

#	Program:	/corina/corina34_cracker 3.40 0067  02.08.2006

@<TRIPOS>MOLECULE
ASD00170685
  26   27    0    0    0
SMALL
NO_CHARGES


@<TRIPOS>ATOM
   1 Cl1            2.2497     3.8871     5.1576 Cl      
   2 C2             1.5739     4.4935     3.6780 C.ar    
   3 C3             2.2583     4.3225     2.4860 C.ar    
   4 C4             1.7263     4.8017     1.3075 C.ar    
   5 C5             0.4954     5.4602     1.3174 C.ar    
   6 C6            -0.1898     5.6295     2.5219 C.ar    
   7 C7             0.3497     5.1414     3.6933 C.ar    
   8 C8            -0.0803     5.9768     0.0570 C.2     
   9 O9             0.5497     5.8884    -0.9814 O.2     
  10 C10           -1.4062     6.5939     0.0575 C.2     
  11 C11           -2.5761     5.8871    -0.0961 C.2     
  12 N12           -2.6506     4.5196    -0.2685 N.pl3   
  13 S13           -3.9212     6.9325    -0.0433 S.3     
  14 C14           -2.9117     8.3485     0.1889 C.2     
  15 C15           -1.6302     8.0148     0.2261 C.2     
  16 C16           -0.5177     9.0137     0.4146 C.3     
  17 Br17          -3.5656    10.1136     0.3699 Br      
  18 H18            3.2107     3.8132     2.4796 H       
  19 H19            2.2610     4.6681     0.3787 H       
  20 H20           -1.1422     6.1385     2.5357 H       
  21 H21           -0.1794     5.2718     4.6258 H       
  22 H22           -1.8386     3.9984    -0.3681 H       
  23 H23           -3.5149     4.0799    -0.2902 H       
  24 H24           -0.3115     9.1314     1.4784 H       
  25 H25            0.3795     8.6582    -0.0922 H       
  26 H26           -0.8163     9.9738    -0.0060 H       
@<TRIPOS>BOND
   1    1    2 1
   2    2    3 ar
   3    2    7 ar
   4    3    4 ar
   5    3   18 1
   6    4    5 ar
   7    4   19 1
   8    5    6 ar
   9    5    8 1
  10    6    7 ar
  11    6   20 1
  12    7   21 1
  13    8    9 2
  14    8   10 1
  15   10   11 2
  16   10   15 1
  17   11   12 1
  18   11   13 1
  19   12   22 1
  20   12   23 1
  21   13   14 1
  22   14   15 2
  23   14   17 1
  24   15   16 1
  25   16   24 1
  26   16   25 1
  27   16   26 1

#	End of record

