#	Name: ASD08150507
#	Creating user name:	WinNT
#	Creation time:	15. 06. 2019 21:16

#	Modifying user name:	WinNT
#	Modification time:	15. 06. 2019 21:16

#	Program:	/corina/corina34_cracker 3.40 0067  02.08.2006

@<TRIPOS>MOLECULE
ASD08150507
  49   53    0    0    0
SMALL
NO_CHARGES


@<TRIPOS>ATOM
   1 N1             0.4828     2.1339     1.7690 N.am    
   2 C2             0.7547     1.1922     2.6932 C.2     
   3 C3             1.9681     0.4753     2.6606 C.2     
   4 C4             2.8843     0.7268     1.6913 C.2     
   5 C5             2.6017     1.7168     0.7172 C.ar    
   6 C6             3.5178     2.0159    -0.3096 C.ar    
   7 N7             3.2548     2.9295    -1.2068 N.ar    
   8 C8             2.1094     3.6289    -1.2038 C.ar    
   9 C9             1.1302     3.3939    -0.2080 C.ar    
  10 C10            1.3844     2.4122     0.7777 C.ar    
  11 C11           -0.2670     5.0791    -1.1948 C.ar    
  12 C12            0.7019     5.3077    -2.1746 C.ar    
  13 C13            1.8662     4.6022    -2.1857 C.ar    
  14 O14           -0.0594     0.9572     3.5698 O.2     
  15 C15           -0.7317     2.8280     1.8195 C.ar    
  16 C16           -1.8523     2.3169     1.1782 C.ar    
  17 C17           -3.0495     3.0040     1.2304 C.ar    
  18 C18           -3.1326     4.1996     1.9198 C.ar    
  19 C19           -2.0181     4.7116     2.5592 C.ar    
  20 C20           -0.8200     4.0265     2.5160 C.ar    
  21 C21           -0.0600     4.1300    -0.2151 C.ar    
  22 N22           -1.4576     5.8199    -1.2065 N.pl3   
  23 C23           -4.4402     4.9468     1.9742 C.3     
  24 C24           -1.5929     7.1396    -1.5523 C.2     
  25 C25           -2.8982     7.4447    -1.4236 C.2     
  26 N26           -3.5465     6.3454    -1.0110 N.2     
  27 C27           -2.6955     5.3640    -0.8829 C.2     
  28 C28           -4.2662     2.4501     0.5348 C.3     
  29 C29           -3.5226     8.7890    -1.6955 C.3     
  30 H30            2.1694    -0.2762     3.4097 H       
  31 H31            3.8155     0.1805     1.6629 H       
  32 H32            4.4548     1.4810    -0.3566 H       
  33 H33            0.5248     6.0545    -2.9344 H       
  34 H34            2.6041     4.7919    -2.9512 H       
  35 H35           -1.7879     1.3834     0.6390 H       
  36 H36           -2.0861     5.6461     3.0962 H       
  37 H37            0.0499     4.4268     3.0155 H       
  38 H38           -0.8115     3.9561     0.5408 H       
  39 H39           -5.0115     4.6165     2.8417 H       
  40 H40           -4.2445     6.0162     2.0537 H       
  41 H41           -5.0102     4.7482     1.0666 H       
  42 H42           -0.8040     7.8067    -1.8671 H       
  43 H43           -2.9344     4.3596    -0.5658 H       
  44 H44           -4.8154     1.8058     1.2213 H       
  45 H45           -4.9076     3.2715     0.2156 H       
  46 H46           -3.9555     1.8723    -0.3357 H       
  47 H47           -3.8331     8.8411    -2.7390 H       
  48 H48           -4.3912     8.9233    -1.0508 H       
  49 H49           -2.7950     9.5751    -1.4932 H       
@<TRIPOS>BOND
   1    1    2 am
   2    1   10 1
   3    1   15 1
   4    2    3 1
   5    2   14 2
   6    3    4 2
   7    3   30 1
   8    4    5 1
   9    4   31 1
  10    5    6 ar
  11    5   10 ar
  12    6    7 ar
  13    6   32 1
  14    7    8 ar
  15    8    9 ar
  16    8   13 ar
  17    9   10 ar
  18    9   21 ar
  19   11   12 ar
  20   11   22 1
  21   11   21 ar
  22   12   13 ar
  23   12   33 1
  24   13   34 1
  25   15   16 ar
  26   15   20 ar
  27   16   17 ar
  28   16   35 1
  29   17   18 ar
  30   17   28 1
  31   18   19 ar
  32   18   23 1
  33   19   20 ar
  34   19   36 1
  35   20   37 1
  36   21   38 1
  37   22   24 1
  38   22   27 1
  39   23   39 1
  40   23   40 1
  41   23   41 1
  42   24   25 2
  43   24   42 1
  44   25   26 1
  45   25   29 1
  46   26   27 2
  47   27   43 1
  48   28   44 1
  49   28   45 1
  50   28   46 1
  51   29   47 1
  52   29   48 1
  53   29   49 1

#	End of record

