#	Name: ASD01914657
#	Creating user name:	WinNT
#	Creation time:	15. 06. 2019 20:04

#	Modifying user name:	WinNT
#	Modification time:	15. 06. 2019 20:04

#	Program:	/corina/corina34_cracker 3.40 0067  02.08.2006

@<TRIPOS>MOLECULE
ASD01914657
  37   39    0    0    0
SMALL
NO_CHARGES


@<TRIPOS>ATOM
   1 N1            -0.0158     1.3157     0.0093 N.ar    
   2 C2             7.1863    -1.2915    -0.0730 C.2     
   3 N3             8.1074    -2.3017    -0.0861 N.pl3   
   4 C4             5.9569    -1.8823    -0.0641 C.2     
   5 N5             6.1458    -3.2260    -0.0718 N.2     
   6 C6             7.4237    -3.4779    -0.0849 C.2     
   7 C7             4.6945    -1.2064    -0.0489 C.1     
   8 C8             3.6596    -0.6523    -0.0364 C.1     
   9 C9             2.3972     0.0236    -0.0212 C.ar    
  10 C10            1.1940    -0.6962    -0.0131 C.ar    
  11 C11            0.0021    -0.0041     0.0020 C.ar    
  12 C12            1.0927     2.0325     0.0025 C.ar    
  13 C13            2.3292     1.4244    -0.0130 C.ar    
  14 C14            9.4984    -2.1531    -0.0992 C.ar    
  15 C15            8.0447    -4.8509    -0.0977 C.3     
  16 C16            1.0047     3.5369     0.0115 C.3     
  17 C17           10.0965    -1.3052    -1.0246 C.ar    
  18 C18           11.4657    -1.1563    -1.0406 C.ar    
  19 C19           12.2538    -1.8585    -0.1248 C.ar    
  20 C20           11.6489    -2.7095     0.8040 C.ar    
  21 C21           10.2787    -2.8494     0.8169 C.ar    
  22 C22           13.6777    -1.7068    -0.1386 C.1     
  23 N23           14.8072    -1.5864    -0.1494 N.1     
  24 H24            7.3922    -0.2313    -0.0664 H       
  25 H25            1.2009    -1.7762    -0.0190 H       
  26 H26           -0.9302    -0.5492     0.0084 H       
  27 H27            3.2319     2.0173    -0.0184 H       
  28 H28            8.1846    -5.1768    -1.1284 H       
  29 H29            9.0103    -4.8177     0.4070 H       
  30 H30            7.3886    -5.5513     0.4189 H       
  31 H31            0.9733     3.9051    -1.0140 H       
  32 H32            0.1002     3.8448     0.5360 H       
  33 H33            1.8770     3.9489     0.5189 H       
  34 H34            9.4867    -0.7629    -1.7320 H       
  35 H35           11.9296    -0.4980    -1.7602 H       
  36 H36           12.2547    -3.2541     1.5131 H       
  37 H37            9.8105    -3.5069     1.5345 H       
@<TRIPOS>BOND
   1    1   11 ar
   2    1   12 ar
   3    2    3 1
   4    2    4 2
   5    2   24 1
   6    3   14 1
   7    3    6 1
   8    4    5 1
   9    4    7 1
  10    5    6 2
  11    6   15 1
  12    7    8 3
  13    8    9 1
  14    9   10 ar
  15    9   13 ar
  16   10   11 ar
  17   10   25 1
  18   11   26 1
  19   12   13 ar
  20   12   16 1
  21   13   27 1
  22   14   17 ar
  23   14   21 ar
  24   15   28 1
  25   15   29 1
  26   15   30 1
  27   16   31 1
  28   16   32 1
  29   16   33 1
  30   17   18 ar
  31   17   34 1
  32   18   19 ar
  33   18   35 1
  34   19   20 ar
  35   19   22 1
  36   20   21 ar
  37   20   36 1
  38   21   37 1
  39   22   23 3

#	End of record

