#	Name: ASD08710010
#	Creating user name:	WinNT
#	Creation time:	15. 06. 2019 21:19

#	Modifying user name:	WinNT
#	Modification time:	15. 06. 2019 21:19

#	Program:	/corina/corina34_cracker 3.40 0067  02.08.2006

@<TRIPOS>MOLECULE
ASD08710010
  50   51    0    0    0
SMALL
NO_CHARGES


@<TRIPOS>ATOM
   1 C1             2.3985     1.4485     0.5110 C.ar    
   2 C2             2.3766     0.0780     0.3350 C.ar    
   3 C3             1.4187     2.2357    -0.0672 C.ar    
   4 C4             0.4177     1.6505    -0.8212 C.ar    
   5 C5             0.3966     0.2795    -0.9966 C.ar    
   6 C6             1.3757    -0.5066    -0.4188 C.ar    
   7 S7             1.3486    -2.2540    -0.6432 S.o2    
   8 O8             2.5058    -2.7602     0.0080 O.2     
   9 O9             0.0301    -2.6789    -0.3266 O.2     
  10 N10            1.5576    -2.5438    -2.2602 N.am    
  11 C11            2.9039    -2.5601    -2.8493 C.3     
  12 C12            0.4005    -2.7953    -3.1307 C.3     
  13 C13            0.6098    -4.1339    -3.8495 C.3     
  14 N14            1.9557    -4.1447    -4.4396 N.am    
  15 C15            3.1079    -3.8992    -3.5687 C.3     
  16 C16            2.1259    -4.3814    -5.7555 C.2     
  17 C17            0.4800    -5.2815    -2.8459 C.3     
  18 O18            1.1615    -4.5885    -6.4652 O.2     
  19 O19            3.3643    -4.3885    -6.2836 O.3     
  20 C20            3.4722    -4.6505    -7.7077 C.3     
  21 C21            2.7008    -3.5805    -8.4829 C.3     
  22 C22            4.9447    -4.6184    -8.1220 C.3     
  23 C23            2.8848    -6.0286    -8.0187 C.3     
  24 C24           -0.6943    -0.3583    -1.8177 C.3     
  25 Br25           1.4478     4.1110     0.1737 Br      
  26 H26            3.1778     1.9046     1.1035 H       
  27 H27            3.1417    -0.5366     0.7861 H       
  28 H28           -0.3476     2.2646    -1.2724 H       
  29 H29            3.0005    -1.7426    -3.5638 H       
  30 H30            3.6493    -2.4508    -2.0616 H       
  31 H31           -0.5070    -2.8413    -2.5287 H       
  32 H32            0.3148    -1.9950    -3.8657 H       
  33 H33           -0.1357    -4.2470    -4.6366 H       
  34 H34            4.0166    -3.8520    -4.1688 H       
  35 H35            3.1911    -4.7027    -2.8369 H       
  36 H36           -0.5138    -5.2622    -2.3985 H       
  37 H37            0.6291    -6.2315    -3.3590 H       
  38 H38            1.2322    -5.1682    -2.0652 H       
  39 H39            3.1192    -2.5987    -8.2614 H       
  40 H40            2.7818    -3.7772    -9.5520 H       
  41 H41            1.6518    -3.6034    -8.1877 H       
  42 H42            5.4942    -5.3806    -7.5697 H       
  43 H43            5.0256    -4.8150    -9.1911 H       
  44 H44            5.3631    -3.6366    -7.9005 H       
  45 H45            1.8358    -6.0514    -7.7235 H       
  46 H46            2.9658    -6.2252    -9.0877 H       
  47 H47            3.4344    -6.7908    -7.4664 H       
  48 H48           -0.3391    -0.5129    -2.8365 H       
  49 H49           -0.9661    -1.3180    -1.3781 H       
  50 H50           -1.5669     0.2948    -1.8324 H       
@<TRIPOS>BOND
   1    1    2 ar
   2    1    3 ar
   3    1   26 1
   4    2    6 ar
   5    2   27 1
   6    3    4 ar
   7    3   25 1
   8    4    5 ar
   9    4   28 1
  10    5    6 ar
  11    5   24 1
  12    6    7 1
  13    7    8 2
  14    7    9 2
  15    7   10 am
  16   10   11 1
  17   10   12 1
  18   11   15 1
  19   11   29 1
  20   11   30 1
  21   12   13 1
  22   12   31 1
  23   12   32 1
  24   13   14 1
  25   13   17 1
  26   13   33 1
  27   14   15 1
  28   14   16 am
  29   15   34 1
  30   15   35 1
  31   16   18 2
  32   16   19 1
  33   17   36 1
  34   17   37 1
  35   17   38 1
  36   19   20 1
  37   20   21 1
  38   20   22 1
  39   20   23 1
  40   21   39 1
  41   21   40 1
  42   21   41 1
  43   22   42 1
  44   22   43 1
  45   22   44 1
  46   23   45 1
  47   23   46 1
  48   23   47 1
  49   24   48 1
  50   24   49 1
  51   24   50 1

#	End of record

