#	Name: ASD03331934
#	Creating user name:	WinNT
#	Creation time:	15. 06. 2019 20:40

#	Modifying user name:	WinNT
#	Modification time:	15. 06. 2019 20:40

#	Program:	/corina/corina34_cracker 3.40 0067  02.08.2006

@<TRIPOS>MOLECULE
ASD03331934
  75   78    0    0    0
SMALL
NO_CHARGES


@<TRIPOS>ATOM
   1 C1            -0.3235     1.1659     0.8569 C.2     
   2 N2            -0.3521    -0.1672     1.0908 N.pl3   
   3 C3             0.9369    -0.5844     1.2519 C.2     
   4 N4             1.7299     0.4554     1.1412 N.2     
   5 C5             0.9817     1.5538     0.8998 C.2     
   6 C6             1.4869     2.9259     0.7158 C.2     
   7 O7             0.7095     3.8366     0.5024 O.2     
   8 N8             2.8103     3.1716     0.7841 N.am    
   9 C9             3.3125     4.5356     0.6012 C.3     
  10 C10            3.4857     4.8194    -0.8922 C.3     
  11 C11            4.3807     3.7460    -1.5148 C.3     
  12 C12            4.6414     4.6792     1.2972 C.2     
  13 C13            2.1174     4.8023    -1.5766 C.3     
  14 C14            4.1321     6.1935    -1.0787 C.3     
  15 O15            5.2294     3.6942     1.6908 O.2     
  16 N16            5.1765     5.9023     1.4823 N.am    
  17 C17            6.5010     6.0375     2.0937 C.3     
  18 C18           -1.5616    -0.9910     1.1704 C.3     
  19 C19           -2.4723    -0.6626    -0.0166 C.3     
  20 C20           -3.3836     0.5073     0.3411 C.3     
  21 N21           -2.7032     1.4500     1.2315 N.3     
  22 C22           -1.5214     2.0383     0.5841 C.3     
  23 C23           -3.6251     2.4958     1.6946 C.3     
  24 C24            1.3684    -1.9761     1.5089 C.ar    
  25 C25            2.6205    -2.4125     1.0757 C.ar    
  26 C26            3.0171    -3.7117     1.3185 C.ar    
  27 C27            2.1758    -4.5808     1.9894 C.ar    
  28 C28            0.9324    -4.1542     2.4213 C.ar    
  29 C29            0.5269    -2.8559     2.1907 C.ar    
  30 S30            4.5982    -4.2649     0.7721 S.o2    
  31 N31            5.6718    -3.9680     1.9975 N.am    
  32 O32            4.5090    -5.6779     0.6504 O.2     
  33 O33            4.9714    -3.4142    -0.3032 O.2     
  34 C34            6.0063    -4.8964     3.0873 C.3     
  35 C35            7.0262    -4.1832     3.9999 C.3     
  36 C36            6.7817    -2.6831     3.6884 C.3     
  37 C37            6.4553    -2.7315     2.1726 C.3     
  38 H38            3.4303     2.4453     0.9544 H       
  39 H39            2.6016     5.2445     1.0257 H       
  40 H40            3.9202     2.7670    -1.3820 H       
  41 H41            4.5041     3.9482    -2.5788 H       
  42 H42            5.3555     3.7582    -1.0273 H       
  43 H43            1.4797     5.5670    -1.1331 H       
  44 H44            2.2408     5.0045    -2.6406 H       
  45 H45            1.6569     3.8234    -1.4438 H       
  46 H46            5.0912     6.2171    -0.5613 H       
  47 H47            4.2877     6.3807    -2.1412 H       
  48 H48            3.4779     6.9617    -0.6664 H       
  49 H49            4.6847     6.6930     1.2107 H       
  50 H50            6.7642     7.0931     2.1606 H       
  51 H51            6.4859     5.6027     3.0931 H       
  52 H52            7.2382     5.5173     1.4822 H       
  53 H53           -1.2870    -2.0453     1.1382 H       
  54 H54           -2.0864    -0.7786     2.1019 H       
  55 H55           -1.8616    -0.3959    -0.8791 H       
  56 H56           -3.0800    -1.5344    -0.2593 H       
  57 H57           -3.6762     1.0252    -0.5723 H       
  58 H58           -4.2763     0.1268     0.8374 H       
  59 H59           -1.3446     3.0360     0.9860 H       
  60 H60           -1.6887     2.1018    -0.4911 H       
  61 H61           -4.4519     2.0371     2.2370 H       
  62 H62           -3.0942     3.1822     2.3541 H       
  63 H63           -4.0134     3.0439     0.8362 H       
  64 H64            3.2780    -1.7350     0.5511 H       
  65 H65            2.4906    -5.5968     2.1767 H       
  66 H66            0.2799    -4.8376     2.9444 H       
  67 H67           -0.4438    -2.5241     2.5283 H       
  68 H68            5.1083    -5.1407     3.6549 H       
  69 H69            6.4472    -5.8053     2.6779 H       
  70 H70            6.8212    -4.3977     5.0488 H       
  71 H71            8.0446    -4.4705     3.7383 H       
  72 H72            5.9382    -2.2975     4.2611 H       
  73 H73            7.6799    -2.0941     3.8742 H       
  74 H74            7.3742    -2.7723     1.5878 H       
  75 H75            5.8596    -1.8651     1.8850 H       
@<TRIPOS>BOND
   1    1    2 1
   2    1    5 2
   3    1   22 1
   4    2    3 1
   5    2   18 1
   6    3    4 2
   7    3   24 1
   8    4    5 1
   9    5    6 1
  10    6    7 2
  11    6    8 am
  12    8    9 1
  13    8   38 1
  14    9   10 1
  15    9   12 1
  16    9   39 1
  17   10   11 1
  18   10   13 1
  19   10   14 1
  20   11   40 1
  21   11   41 1
  22   11   42 1
  23   12   15 2
  24   12   16 am
  25   13   43 1
  26   13   44 1
  27   13   45 1
  28   14   46 1
  29   14   47 1
  30   14   48 1
  31   16   17 1
  32   16   49 1
  33   17   50 1
  34   17   51 1
  35   17   52 1
  36   18   19 1
  37   18   53 1
  38   18   54 1
  39   19   20 1
  40   19   55 1
  41   19   56 1
  42   20   21 1
  43   20   57 1
  44   20   58 1
  45   21   22 1
  46   21   23 1
  47   22   59 1
  48   22   60 1
  49   23   61 1
  50   23   62 1
  51   23   63 1
  52   24   25 ar
  53   24   29 ar
  54   25   26 ar
  55   25   64 1
  56   26   27 ar
  57   26   30 1
  58   27   28 ar
  59   27   65 1
  60   28   29 ar
  61   28   66 1
  62   29   67 1
  63   30   31 am
  64   30   32 2
  65   30   33 2
  66   31   34 1
  67   31   37 1
  68   34   35 1
  69   34   68 1
  70   34   69 1
  71   35   36 1
  72   35   70 1
  73   35   71 1
  74   36   37 1
  75   36   72 1
  76   36   73 1
  77   37   74 1
  78   37   75 1

#	End of record

