#	Name: ASD02030217
#	Creating user name:	WinNT
#	Creation time:	15. 06. 2019 20:14

#	Modifying user name:	WinNT
#	Modification time:	15. 06. 2019 20:14

#	Program:	/corina/corina34_cracker 3.40 0067  02.08.2006

@<TRIPOS>MOLECULE
ASD02030217
  52   56    0    0    0
SMALL
NO_CHARGES


@<TRIPOS>ATOM
   1 N1            -0.1329     1.8378     0.1059 N.am    
   2 C2             0.1253     0.4106    -0.1315 C.3     
   3 C3            -0.6284    -0.4062     0.9255 C.3     
   4 N4            -2.0202     0.0628     0.9769 N.am    
   5 C5            -2.2784     1.4900     1.2144 C.3     
   6 C6            -1.5248     2.3059     0.1630 C.3     
   7 C7             0.8885     2.7010     0.2739 C.2     
   8 C8             2.2783     2.2000     0.3278 C.2     
   9 N9             3.3479     2.9140     0.6056 N.2     
  10 N10            2.6717     0.9322     0.1072 N.2     
  11 C11            3.9723     0.8982     0.2492 C.2     
  12 N12            4.3810     2.1453     0.5610 N.pl3   
  13 C13            5.7054     2.5384     0.7965 C.ar    
  14 O14            0.6668     3.8914     0.3811 O.2     
  15 C15           -3.0416    -0.8004     0.8090 C.2     
  16 C16           -2.7699    -2.1992     0.4490 C.2     
  17 O17           -4.1884    -0.4216     0.9553 O.2     
  18 C18            5.9932     3.8596     1.1101 C.ar    
  19 C19            7.3008     4.2442     1.3419 C.ar    
  20 C20            8.3214     3.3133     1.2609 C.ar    
  21 C21            8.0367     1.9967     0.9481 C.ar    
  22 C22            6.7316     1.6056     0.7222 C.ar    
  23 C23           -3.7791     1.7659     1.1026 C.3     
  24 Cl24           7.6626     5.8961     1.7343 Cl      
  25 C25           -3.7140    -3.1210     0.1277 C.2     
  26 C26           -2.9906    -4.3602    -0.1550 C.ar    
  27 C27           -1.6288    -4.0573     0.0295 C.ar    
  28 O28           -1.5443    -2.7600     0.3824 O.3     
  29 C29           -3.3764    -5.6482    -0.5344 C.ar    
  30 C30           -2.4262    -6.6111    -0.7254 C.ar    
  31 C31           -1.0813    -6.3178    -0.5444 C.ar    
  32 C32           -0.6801    -5.0538    -0.1703 C.ar    
  33 H33           -0.2267     0.1357    -1.1258 H       
  34 H34            1.1944     0.2141    -0.0519 H       
  35 H35           -0.6078    -1.4619     0.6550 H       
  36 H36           -0.1589    -0.2662     1.8992 H       
  37 H37           -1.9264     1.7649     2.2087 H       
  38 H38           -1.5462     3.3613     0.4346 H       
  39 H39           -1.9922     2.1669    -0.8119 H       
  40 H40            4.6034     0.0287     0.1399 H       
  41 H41            5.1967     4.5863     1.1727 H       
  42 H42            9.3423     3.6156     1.4419 H       
  43 H43            8.8354     1.2725     0.8849 H       
  44 H44            6.5103     0.5771     0.4783 H       
  45 H45           -4.3022     1.2657     1.9177 H       
  46 H46           -3.9565     2.8397     1.1618 H       
  47 H47           -4.1478     1.3888     0.1487 H       
  48 H48           -4.7827    -2.9696     0.0888 H       
  49 H49           -4.4213    -5.8818    -0.6759 H       
  50 H50           -2.7232    -7.6071    -1.0187 H       
  51 H51           -0.3412    -7.0892    -0.6986 H       
  52 H52            0.3691    -4.8377    -0.0323 H       
@<TRIPOS>BOND
   1    1    2 1
   2    1    7 am
   3    1    6 1
   4    2    3 1
   5    2   33 1
   6    2   34 1
   7    3    4 1
   8    3   35 1
   9    3   36 1
  10    4    5 1
  11    4   15 am
  12    5    6 1
  13    5   23 1
  14    5   37 1
  15    6   38 1
  16    6   39 1
  17    7    8 1
  18    7   14 2
  19    8    9 2
  20    8   10 1
  21    9   12 1
  22   10   11 2
  23   11   12 1
  24   11   40 1
  25   12   13 1
  26   13   18 ar
  27   13   22 ar
  28   15   16 1
  29   15   17 2
  30   16   25 2
  31   16   28 1
  32   18   19 ar
  33   18   41 1
  34   19   20 ar
  35   19   24 1
  36   20   21 ar
  37   20   42 1
  38   21   22 ar
  39   21   43 1
  40   22   44 1
  41   23   45 1
  42   23   46 1
  43   23   47 1
  44   25   26 1
  45   25   48 1
  46   26   27 ar
  47   26   29 ar
  48   27   28 1
  49   27   32 ar
  50   29   30 ar
  51   29   49 1
  52   30   31 ar
  53   30   50 1
  54   31   32 ar
  55   31   51 1
  56   32   52 1

#	End of record

