#	Name: ASD01820109
#	Creating user name:	WinNT
#	Creation time:	15. 06. 2019 19:36

#	Modifying user name:	WinNT
#	Modification time:	15. 06. 2019 19:36

#	Program:	/corina/corina34_cracker 3.40 0067  02.08.2006

@<TRIPOS>MOLECULE
ASD01820109
  59   63    0    0    0
SMALL
NO_CHARGES


@<TRIPOS>ATOM
   1 O1             0.0251     1.3792    -0.0657 O.3     
   2 C2             0.0409    -0.0497    -0.0551 C.3     
   3 H3             0.5638    -0.4385    -0.9289 H       
   4 C4            -1.3931    -0.6179     0.0293 C.3     
   5 N5            -1.2917    -1.8128     0.8753 N.am    
   6 C6            -0.1452    -1.8184     1.5771 C.2     
   7 O7             0.1874    -2.6852     2.3572 O.2     
   8 C8             0.6710    -0.5864     1.2511 C.3     
   9 C9            -2.2571    -2.8103     0.9426 C.ar    
  10 C10           -3.3569    -2.7537     0.0863 C.ar    
  11 C11           -4.3099    -3.7353     0.1503 C.ar    
  12 C12           -4.1372    -4.7641     1.0824 C.ar    
  13 C13           -5.1186    -5.8533     1.2089 C.2     
  14 O14           -6.1141    -5.8963     0.5069 O.2     
  15 C15           -4.8465    -6.8893     2.2193 C.2     
  16 C16           -3.7037    -6.7878     2.9839 C.2     
  17 N17           -2.8323    -5.7775     2.8384 N.pl3   
  18 C18           -1.6951    -5.7501     3.6567 C.ar    
  19 C19           -0.5251    -6.3705     3.2416 C.ar    
  20 C20            0.5954    -6.3420     4.0494 C.ar    
  21 C21            0.5527    -5.6957     5.2732 C.ar    
  22 F22            1.6501    -5.6697     6.0607 F       
  23 C23           -0.6130    -5.0753     5.6910 C.ar    
  24 C24           -1.7353    -5.0960     4.8837 C.ar    
  25 F25           -2.8709    -4.4863     5.2884 F       
  26 C26           -3.0070    -4.7672     1.9193 C.ar    
  27 N27           -2.1101    -3.7947     1.8131 N.ar    
  28 C28           -5.7778    -8.0123     2.4099 C.2     
  29 O29           -5.4941    -8.9146     3.1747 O.2     
  30 N30           -6.9453    -8.0412     1.7371 N.am    
  31 C31           -7.8180    -9.2138     1.8346 C.3     
  32 C32           -9.2404    -8.8066     1.5481 C.ar    
  33 C33           -9.4973    -7.6931     0.7710 C.ar    
  34 C34          -10.8022    -7.3194     0.5081 C.ar    
  35 C35          -11.8505    -8.0587     1.0227 C.ar    
  36 C36          -11.5948    -9.1727     1.8002 C.ar    
  37 C37          -10.2895    -9.5507     2.0585 C.ar    
  38 Cl38          -9.9675   -10.9537     3.0290 Cl      
  39 C39           -7.3740   -10.2662     0.8167 C.3     
  40 F40           -6.0535   -10.6443     1.0826 F       
  41 F41           -8.2074   -11.3860     0.9098 F       
  42 F42           -7.4549    -9.7306    -0.4732 F       
  43 H43            0.9041     1.7822    -0.0702 H       
  44 H44           -2.0617     0.1119     0.4859 H       
  45 H45           -1.7507    -0.8883    -0.9642 H       
  46 H46            1.7158    -0.8519     1.0896 H       
  47 H47            0.5828     0.1515     2.0484 H       
  48 H48           -3.4562    -1.9431    -0.6204 H       
  49 H49           -5.1714    -3.7154    -0.5007 H       
  50 H50           -3.5031    -7.5470     3.7253 H       
  51 H51           -0.4905    -6.8756     2.2877 H       
  52 H52            1.5057    -6.8250     3.7260 H       
  53 H53           -0.6441    -4.5717     6.6459 H       
  54 H54           -7.2076    -7.2857     1.1883 H       
  55 H55           -7.7550    -9.6311     2.8396 H       
  56 H56           -8.6786    -7.1146     0.3692 H       
  57 H57          -11.0025    -6.4491    -0.0993 H       
  58 H58          -12.8696    -7.7659     0.8176 H       
  59 H59          -12.4140    -9.7504     2.2023 H       
@<TRIPOS>BOND
   1    1    2 1
   2    1   43 1
   3    2    3 1
   4    2    8 1
   5    2    4 1
   6    4    5 1
   7    4   44 1
   8    4   45 1
   9    5    6 am
  10    5    9 1
  11    6    7 2
  12    6    8 1
  13    8   46 1
  14    8   47 1
  15    9   27 ar
  16    9   10 ar
  17   10   11 ar
  18   10   48 1
  19   11   12 ar
  20   11   49 1
  21   12   26 ar
  22   12   13 1
  23   13   14 2
  24   13   15 1
  25   15   16 2
  26   15   28 1
  27   16   17 1
  28   16   50 1
  29   17   18 1
  30   17   26 1
  31   18   24 ar
  32   18   19 ar
  33   19   20 ar
  34   19   51 1
  35   20   21 ar
  36   20   52 1
  37   21   22 1
  38   21   23 ar
  39   23   24 ar
  40   23   53 1
  41   24   25 1
  42   26   27 ar
  43   28   29 2
  44   28   30 am
  45   30   31 1
  46   30   54 1
  47   31   32 1
  48   31   39 1
  49   31   55 1
  50   32   37 ar
  51   32   33 ar
  52   33   34 ar
  53   33   56 1
  54   34   35 ar
  55   34   57 1
  56   35   36 ar
  57   35   58 1
  58   36   37 ar
  59   36   59 1
  60   37   38 1
  61   39   40 1
  62   39   41 1
  63   39   42 1

#	End of record

