#	Name: ASD00170285
#	Creating user name:	WinNT
#	Creation time:	15. 06. 2019 18:31

#	Modifying user name:	WinNT
#	Modification time:	15. 06. 2019 18:31

#	Program:	/corina/corina34_cracker 3.40 0067  02.08.2006

@<TRIPOS>MOLECULE
ASD00170285
  42   45    0    0    0
SMALL
NO_CHARGES


@<TRIPOS>ATOM
   1 C1            -0.0173     1.3750    -0.1034 C.2     
   2 C2             0.0097     0.0076    -0.0110 C.2     
   3 C3            -1.3085    -0.5826     0.1169 C.2     
   4 C4            -2.2831     0.3353     0.1177 C.2     
   5 S5            -1.6179     1.9518    -0.0299 S.3     
   6 C6             1.2455    -0.7781    -0.0393 C.2     
   7 C7             1.7915    -1.2465    -1.3255 C.2     
   8 O8             1.8220    -1.0445     1.0004 O.2     
   9 N9             1.1010     2.1757    -0.2326 N.pl3   
  10 C10            1.1550    -1.0795    -2.5154 C.2     
  11 S11            2.0718    -1.7407    -3.7911 S.3     
  12 C12            3.3489    -2.2589    -2.7044 C.2     
  13 C13            3.0600    -1.9244    -1.4521 C.2     
  14 C14           -1.5867    -2.0728     0.2393 C.3     
  15 C15           -3.0173    -2.2509     0.7577 C.3     
  16 N16           -3.9333    -1.4339    -0.0511 N.3     
  17 C17           -3.7561    -0.0029     0.2378 C.3     
  18 C18           -5.3283    -1.8442     0.1577 C.3     
  19 C19           -6.2490    -0.8400    -0.4865 C.ar    
  20 C20           -6.6399    -1.0050    -1.8021 C.ar    
  21 C21           -7.4844    -0.0839    -2.3929 C.ar    
  22 C22           -7.9384     1.0021    -1.6681 C.ar    
  23 C23           -7.5482     1.1667    -0.3522 C.ar    
  24 C24           -6.7072     0.2431     0.2400 C.ar    
  25 H25            1.9867     1.7834    -0.1827 H       
  26 H26            1.0004     3.1301    -0.3731 H       
  27 H27            0.1979    -0.5939    -2.6358 H       
  28 H28            4.2469    -2.7740    -3.0120 H       
  29 H29            3.7045    -2.1433    -0.6135 H       
  30 H30           -1.4876    -2.5469    -0.7372 H       
  31 H31           -0.8829    -2.5221     0.9400 H       
  32 H32           -3.3033    -3.3001     0.6830 H       
  33 H33           -3.0691    -1.9327     1.7989 H       
  34 H34           -4.1004     0.2116     1.2495 H       
  35 H35           -4.3263     0.5884    -0.4787 H       
  36 H36           -5.4896    -2.8247    -0.2904 H       
  37 H37           -5.5362    -1.8945     1.2265 H       
  38 H38           -6.2853    -1.8535    -2.3684 H       
  39 H39           -7.7893    -0.2124    -3.4210 H       
  40 H40           -8.5976     1.7222    -2.1299 H       
  41 H41           -7.9026     2.0153     0.2141 H       
  42 H42           -6.4023     0.3717     1.2681 H       
@<TRIPOS>BOND
   1    1    2 2
   2    1    9 1
   3    1    5 1
   4    2    3 1
   5    2    6 1
   6    3    4 2
   7    3   14 1
   8    4    5 1
   9    4   17 1
  10    6    7 1
  11    6    8 2
  12    7   10 2
  13    7   13 1
  14    9   25 1
  15    9   26 1
  16   10   11 1
  17   10   27 1
  18   11   12 1
  19   12   13 2
  20   12   28 1
  21   13   29 1
  22   14   15 1
  23   14   30 1
  24   14   31 1
  25   15   16 1
  26   15   32 1
  27   15   33 1
  28   16   17 1
  29   16   18 1
  30   17   34 1
  31   17   35 1
  32   18   19 1
  33   18   36 1
  34   18   37 1
  35   19   20 ar
  36   19   24 ar
  37   20   21 ar
  38   20   38 1
  39   21   22 ar
  40   21   39 1
  41   22   23 ar
  42   22   40 1
  43   23   24 ar
  44   23   41 1
  45   24   42 1

#	End of record

