#	Name: ASD08178084
#	Creating user name:	WinNT
#	Creation time:	15. 06. 2019 21:18

#	Modifying user name:	WinNT
#	Modification time:	15. 06. 2019 21:18

#	Program:	/corina/corina34_cracker 3.40 0067  02.08.2006

@<TRIPOS>MOLECULE
ASD08178084
  61   64    0    0    0
SMALL
NO_CHARGES


@<TRIPOS>ATOM
   1 N1            -0.0150     1.2583     0.0090 N.2     
   2 N2             0.0021    -0.0041     0.0020 N.2     
   3 C3             1.1271     1.8769     0.0014 C.2     
   4 S4             2.3826     0.7116    -0.0169 S.3     
   5 C5             1.1681    -0.5677    -0.0121 C.2     
   6 N6             1.3017     3.2566     0.0067 N.am    
   7 C7             0.2284     4.0717     0.0214 C.2     
   8 O8            -0.8897     3.6019     0.0299 O.2     
   9 C9             1.4387    -2.0502    -0.0227 C.3     
  10 C10            1.5165    -2.5442    -1.4687 C.3     
  11 C11            2.1699    -6.2152    -3.4347 C.3     
  12 C12            2.2167    -6.5408    -4.9053 C.2     
  13 N13            3.2694    -6.5184    -5.6596 N.2     
  14 S14            0.8491    -7.0282    -5.9071 S.3     
  15 C15            1.9000    -7.1354    -7.2557 C.2     
  16 N16            3.1017    -6.8250    -6.8728 N.2     
  17 N17            1.5289    -7.4992    -8.5457 N.am    
  18 C18            2.4537    -7.5464    -9.5250 C.2     
  19 O19            3.6096    -7.2716    -9.2812 O.2     
  20 C20            2.0516    -7.9407   -10.9228 C.3     
  21 C21            0.4176     5.5667     0.0272 C.3     
  22 C22            1.0637     5.9963    -1.2648 C.ar    
  23 C23            1.1149    -6.9038   -11.4873 C.ar    
  24 C24            1.6232    -5.7739   -12.1003 C.ar    
  25 C25            2.4354     6.1543    -1.3325 C.ar    
  26 C26            3.0280     6.5484    -2.5175 C.ar    
  27 C27            2.2492     6.7840    -3.6350 C.ar    
  28 C28            0.8776     6.6251    -3.5675 C.ar    
  29 C29            0.2854     6.2268    -2.3836 C.ar    
  30 O30           -0.8529     6.2072     0.1603 O.3     
  31 C31           -0.2525    -7.0854   -11.3972 C.ar    
  32 C32           -1.1116    -6.1343   -11.9150 C.ar    
  33 C33           -0.6034    -5.0014   -12.5225 C.ar    
  34 C34            0.7640    -4.8228   -12.6182 C.ar    
  35 O35            3.2161    -8.0294   -11.7463 O.3     
  36 S36            1.8422    -4.3286    -1.4814 S.3     
  37 C37            1.8986    -4.7206    -3.2516 C.3     
  38 H38            2.1959     3.6323    -0.0001 H       
  39 H39            2.3843    -2.2506     0.4811 H       
  40 H40            0.6334    -2.5702     0.4961 H       
  41 H41            0.5709    -2.3438    -1.9724 H       
  42 H42            2.3218    -2.0242    -1.9874 H       
  43 H43            1.3741    -6.7896    -2.9605 H       
  44 H44            3.1250    -6.4700    -2.9755 H       
  45 H45            0.6045    -7.7190    -8.7407 H       
  46 H46            1.5500    -8.9080   -10.8974 H       
  47 H47            1.0562     5.8489     0.8642 H       
  48 H48            2.6915    -5.6339   -12.1744 H       
  49 H49            3.0439     5.9703    -0.4594 H       
  50 H50            4.0996     6.6726    -2.5702 H       
  51 H51            2.7121     7.0926    -4.5606 H       
  52 H52            0.2691     6.8094    -4.4405 H       
  53 H53           -0.7862     6.1026    -2.3309 H       
  54 H54           -1.4739     6.0009    -0.5517 H       
  55 H55           -0.6495    -7.9705   -10.9225 H       
  56 H56           -2.1799    -6.2765   -11.8452 H       
  57 H57           -1.2746    -4.2585   -12.9273 H       
  58 H58            1.1611    -3.9377   -13.0928 H       
  59 H59            3.7133    -7.2029   -11.8148 H       
  60 H60            2.6943    -4.1461    -3.7258 H       
  61 H61            0.9434    -4.4658    -3.7108 H       
@<TRIPOS>BOND
   1    1    2 1
   2    1    3 2
   3    2    5 2
   4    3    4 1
   5    3    6 1
   6    4    5 1
   7    5    9 1
   8    6    7 am
   9    6   38 1
  10    7    8 2
  11    7   21 1
  12    9   10 1
  13    9   39 1
  14    9   40 1
  15   10   36 1
  16   10   41 1
  17   10   42 1
  18   11   12 1
  19   11   37 1
  20   11   43 1
  21   11   44 1
  22   12   13 2
  23   12   14 1
  24   13   16 1
  25   14   15 1
  26   15   16 2
  27   15   17 1
  28   17   18 am
  29   17   45 1
  30   18   19 2
  31   18   20 1
  32   20   35 1
  33   20   23 1
  34   20   46 1
  35   21   22 1
  36   21   30 1
  37   21   47 1
  38   22   25 ar
  39   22   29 ar
  40   23   31 ar
  41   23   24 ar
  42   24   34 ar
  43   24   48 1
  44   25   26 ar
  45   25   49 1
  46   26   27 ar
  47   26   50 1
  48   27   28 ar
  49   27   51 1
  50   28   29 ar
  51   28   52 1
  52   29   53 1
  53   30   54 1
  54   31   32 ar
  55   31   55 1
  56   32   33 ar
  57   32   56 1
  58   33   34 ar
  59   33   57 1
  60   34   58 1
  61   35   59 1
  62   36   37 1
  63   37   60 1
  64   37   61 1

#	End of record

