#	Name: ASD03330148
#	Creating user name:	WinNT
#	Creation time:	15. 06. 2019 20:36

#	Modifying user name:	WinNT
#	Modification time:	15. 06. 2019 20:36

#	Program:	/corina/corina34_cracker 3.40 0067  02.08.2006

@<TRIPOS>MOLECULE
ASD03330148
  57   60    0    0    0
SMALL
NO_CHARGES


@<TRIPOS>ATOM
   1 C1             0.0158     1.4061    -0.0096 C.2     
   2 C2            -0.0246     0.0428    -0.0096 C.2     
   3 C3             1.2105    -0.5699    -0.0040 C.2     
   4 C4             2.2757     0.3024     0.0006 C.2     
   5 S5             1.6845     1.9580    -0.0022 S.3     
   6 C6            -1.1574     2.2804    -0.0205 C.2     
   7 O7            -2.2746     1.7992    -0.0305 O.2     
   8 O8            -1.0000     3.6205    -0.0194 O.3     
   9 C9             1.3774    -2.0430    -0.0031 C.ar    
  10 C10            0.7783    -2.8134     0.9926 C.ar    
  11 C11            0.9356    -4.1837     0.9906 C.ar    
  12 C12            1.6898    -4.7958    -0.0011 C.ar    
  13 C13            2.2876    -4.0317    -0.9939 C.ar    
  14 C14            2.1292    -2.6616    -1.0012 C.ar    
  15 O15            1.8436    -6.1462     0.0003 O.3     
  16 C16            2.6323    -6.7104    -1.0493 C.3     
  17 C17            2.6913    -8.2301    -0.8824 C.3     
  18 C18            3.5357    -8.8342    -2.0062 C.3     
  19 O19            3.5909   -10.2536    -1.8503 O.3     
  20 C20            4.3597   -10.9191    -2.8543 C.3     
  21 C21            4.4538   -12.4102    -2.5205 C.3     
  22 C22            5.2276   -13.1264    -3.6316 C.3     
  23 C23            4.5279   -12.8735    -4.9706 C.3     
  24 C24            4.4310   -11.3645    -5.2098 C.3     
  25 O25            3.7271   -10.7559    -4.1253 O.3     
  26 C26            3.6972    -0.0922     0.0077 C.ar    
  27 C27            4.5871     0.4719    -0.9119 C.ar    
  28 C28            5.9155     0.0986    -0.8994 C.ar    
  29 C29            6.3675    -0.8330     0.0219 C.ar    
  30 C30            5.4897    -1.3951     0.9356 C.ar    
  31 C31            4.1610    -1.0265     0.9368 C.ar    
  32 F32            7.6691    -1.1949     0.0292 F       
  33 Cl33           4.0218     1.6384    -2.0666 Cl      
  34 H34           -0.9507    -0.5128    -0.0133 H       
  35 H35           -1.8315     4.1141    -0.0271 H       
  36 H36            0.1919    -2.3377     1.7649 H       
  37 H37            0.4718    -4.7810     1.7616 H       
  38 H38            2.8741    -4.5110    -1.7638 H       
  39 H39            2.5909    -2.0681    -1.7765 H       
  40 H40            2.1827    -6.4678    -2.0122 H       
  41 H41            3.6414    -6.3006    -1.0059 H       
  42 H42            3.1409    -8.4727     0.0805 H       
  43 H43            1.6822    -8.6398    -0.9258 H       
  44 H44            3.0862    -8.5916    -2.9691 H       
  45 H45            4.5449    -8.4244    -1.9628 H       
  46 H46            5.3613   -10.4904    -2.8889 H       
  47 H47            4.9754   -12.5390    -1.5721 H       
  48 H48            3.4509   -12.8307    -2.4456 H       
  49 H49            6.2461   -12.7405    -3.6738 H       
  50 H50            5.2501   -14.1971    -3.4285 H       
  51 H51            5.1026   -13.3336    -5.7745 H       
  52 H52            3.5266   -13.3034    -4.9453 H       
  53 H53            5.4335   -10.9417    -5.2754 H       
  54 H54            3.8959   -11.1777    -6.1409 H       
  55 H55            6.6041     0.5329    -1.6090 H       
  56 H56            5.8482    -2.1205     1.6510 H       
  57 H57            3.4794    -1.4622     1.6523 H       
@<TRIPOS>BOND
   1    1    2 2
   2    1    5 1
   3    1    6 1
   4    2    3 1
   5    2   34 1
   6    3    4 2
   7    3    9 1
   8    4    5 1
   9    4   26 1
  10    6    7 2
  11    6    8 1
  12    8   35 1
  13    9   10 ar
  14    9   14 ar
  15   10   11 ar
  16   10   36 1
  17   11   12 ar
  18   11   37 1
  19   12   13 ar
  20   12   15 1
  21   13   14 ar
  22   13   38 1
  23   14   39 1
  24   15   16 1
  25   16   17 1
  26   16   40 1
  27   16   41 1
  28   17   18 1
  29   17   42 1
  30   17   43 1
  31   18   19 1
  32   18   44 1
  33   18   45 1
  34   19   20 1
  35   20   21 1
  36   20   25 1
  37   20   46 1
  38   21   22 1
  39   21   47 1
  40   21   48 1
  41   22   23 1
  42   22   49 1
  43   22   50 1
  44   23   24 1
  45   23   51 1
  46   23   52 1
  47   24   25 1
  48   24   53 1
  49   24   54 1
  50   26   27 ar
  51   26   31 ar
  52   27   28 ar
  53   27   33 1
  54   28   29 ar
  55   28   55 1
  56   29   30 ar
  57   29   32 1
  58   30   31 ar
  59   30   56 1
  60   31   57 1

#	End of record

