#	Name: ASD01911988
#	Creating user name:	WinNT
#	Creation time:	15. 06. 2019 19:58

#	Modifying user name:	WinNT
#	Modification time:	15. 06. 2019 19:58

#	Program:	/corina/corina34_cracker 3.40 0067  02.08.2006

@<TRIPOS>MOLECULE
ASD01911988
  39   41    0    0    0
SMALL
NO_CHARGES


@<TRIPOS>ATOM
   1 C1            -1.8739     1.3310     1.1817 C.ar    
   2 C2            -1.8106    -0.0600     1.1460 C.ar    
   3 C3            -2.3664    -0.7727     2.2058 C.ar    
   4 N4            -2.9300    -0.1076     3.2004 N.ar    
   5 C5            -2.9697     1.2098     3.1969 C.ar    
   6 N6            -2.4553     1.9202     2.2132 N.ar    
   7 N7            -1.2056    -0.7232     0.0747 N.pl3   
   8 C8            -1.0658    -2.1142     0.1026 C.ar    
   9 C9             0.3302    -4.0641    -0.0155 C.ar    
  10 C10           -0.7799    -4.8714     0.1552 C.ar    
  11 C11           -2.0407    -4.3009     0.2956 C.ar    
  12 C12           -2.1827    -2.9211     0.2688 C.ar    
  13 N13           -3.1641    -5.1177     0.4678 N.am    
  14 C14           -4.3852    -4.6665     0.1190 C.2     
  15 C15           -5.5858    -5.4742     0.4211 C.ar    
  16 O16           -4.4994    -3.5952    -0.4441 O.2     
  17 C17           -6.8517    -5.0097     0.0612 C.ar    
  18 C18            0.1906    -2.6896    -0.0419 C.ar    
  19 C19           -0.7180     0.0391    -1.0775 C.3     
  20 C20           -7.9687    -5.7684     0.3454 C.ar    
  21 C21           -7.8364    -6.9872     0.9858 C.ar    
  22 C22           -6.5834    -7.4545     1.3459 C.ar    
  23 C23           -5.4576    -6.7075     1.0625 C.ar    
  24 Cl24          -6.4277    -8.9856     2.1493 Cl      
  25 F25           -0.6402    -6.2149     0.1806 F       
  26 H26           -1.4507     1.9196     0.3812 H       
  27 H27           -2.3378    -1.8523     2.2152 H       
  28 H28           -3.4378     1.7222     4.0244 H       
  29 H29            1.3084    -4.5087    -0.1239 H       
  30 H30           -3.1606    -2.4757     0.3775 H       
  31 H31           -3.0638    -6.0085     0.8383 H       
  32 H32           -6.9569    -4.0581    -0.4386 H       
  33 H33            1.0592    -2.0618    -0.1753 H       
  34 H34            0.3190     0.3293    -0.9085 H       
  35 H35           -0.7813    -0.5774    -1.9741 H       
  36 H36           -1.3289     0.9325    -1.2069 H       
  37 H37           -8.9487    -5.4094     0.0675 H       
  38 H38           -8.7140    -7.5769     1.2062 H       
  39 H39           -4.4808    -7.0726     1.3433 H       
@<TRIPOS>BOND
   1    1    2 ar
   2    1    6 ar
   3    1   26 1
   4    2    3 ar
   5    2    7 1
   6    3    4 ar
   7    3   27 1
   8    4    5 ar
   9    5    6 ar
  10    5   28 1
  11    7    8 1
  12    7   19 1
  13    8   18 ar
  14    8   12 ar
  15    9   10 ar
  16    9   18 ar
  17    9   29 1
  18   10   11 ar
  19   10   25 1
  20   11   12 ar
  21   11   13 1
  22   12   30 1
  23   13   14 am
  24   13   31 1
  25   14   15 1
  26   14   16 2
  27   15   17 ar
  28   15   23 ar
  29   17   20 ar
  30   17   32 1
  31   18   33 1
  32   19   34 1
  33   19   35 1
  34   19   36 1
  35   20   21 ar
  36   20   37 1
  37   21   22 ar
  38   21   38 1
  39   22   23 ar
  40   22   24 1
  41   23   39 1

#	End of record

