#	Name: ASD02560176
#	Creating user name:	WinNT
#	Creation time:	15. 06. 2019 20:24

#	Modifying user name:	WinNT
#	Modification time:	15. 06. 2019 20:24

#	Program:	/corina/corina34_cracker 3.40 0067  02.08.2006

@<TRIPOS>MOLECULE
ASD02560176
  62   65    0    0    0
SMALL
NO_CHARGES


@<TRIPOS>ATOM
   1 N1            -0.0340     1.0199     0.3396 N.2     
   2 N2             0.1052    -0.1634     0.6644 N.2     
   3 C3             1.2554     1.7229     0.3283 C.3     
   4 N4             2.2750     0.6435     0.3268 N.3     
   5 C5             1.5143    -0.4786     0.9325 C.3     
   6 S6             1.8157    -0.5541     2.7197 S.3     
   7 C7             1.0502     0.9741     3.3275 C.3     
   8 C8             1.2364     1.0701     4.8199 C.2     
   9 O9             1.9060     0.2430     5.4019 O.2     
  10 N10            0.6589     2.0749     5.5078 N.am    
  11 C11            3.3719     0.9900     1.1191 C.ar    
  12 C12            0.7492     2.1096     6.9042 C.ar    
  13 C13           -0.3028     2.6168     7.6579 C.ar    
  14 C14           -0.2102     2.6490     9.0362 C.ar    
  15 C15            0.9276     2.1771     9.6653 C.ar    
  16 C16            1.9754     1.6721     8.9180 C.ar    
  17 C17            1.8872     1.6321     7.5398 C.ar    
  18 Cl18          -1.7308     3.2097     6.8686 Cl      
  19 S19            1.0422     2.2203    11.4230 S.o2    
  20 O20            2.4286     2.2174    11.7349 O.2     
  21 O21            0.1497     3.2366    11.8585 O.2     
  22 C22            4.3132     0.0191     1.4632 C.ar    
  23 C23            3.5221     2.2978     1.5543 C.ar    
  24 C24            4.6075     2.6377     2.3374 C.ar    
  25 C25            5.5362     1.6756     2.6793 C.ar    
  26 C26            5.3951     0.3654     2.2391 C.ar    
  27 C27            4.0880    -1.3844     0.9651 C.3     
  28 N28            0.4326     0.7885    11.9893 N.am    
  29 C29            6.4550    -0.6269     2.6408 C.3     
  30 C30            5.9467    -2.0564     2.4650 C.3     
  31 C31            5.3788    -2.1968     1.0460 C.3     
  32 C32            6.7192     2.0517     3.5336 C.3     
  33 C33            2.5058     3.3436     1.1742 C.3     
  34 C34            1.3843     2.5793    -0.9330 C.3     
  35 F35            0.7152     3.7931    -0.7429 F       
  36 F36            2.7365     2.8277    -1.1918 F       
  37 F37            0.8190     1.9001    -2.0176 F       
  38 H38            1.3585     2.3412     1.2201 H       
  39 H39            1.7888    -1.4218     0.4603 H       
  40 H40            1.5203     1.8320     2.8468 H       
  41 H41           -0.0144     0.9649     3.0940 H       
  42 H42            0.1807     2.7741     5.0352 H       
  43 H43           -1.0268     3.0432     9.6228 H       
  44 H44            2.8625     1.3047     9.4124 H       
  45 H45            2.7063     1.2374     6.9570 H       
  46 H46            4.7297     3.6542     2.6812 H       
  47 H47            3.3227    -1.8639     1.5754 H       
  48 H48            3.7504    -1.3483    -0.0707 H       
  49 H49            0.1010     0.1225    11.3668 H       
  50 H50            0.4071     0.6158    12.9434 H       
  51 H51            7.3384    -0.4806     2.0194 H       
  52 H52            6.7206    -0.4659     3.6856 H       
  53 H53            6.7693    -2.7580     2.6031 H       
  54 H54            5.1635    -2.2599     3.1952 H       
  55 H55            5.1651    -3.2453     0.8383 H       
  56 H56            6.1009    -1.8185     0.3225 H       
  57 H57            6.4641     1.9213     4.5853 H       
  58 H58            7.5660     1.4126     3.2833 H       
  59 H59            6.9834     3.0932     3.3503 H       
  60 H60            1.6793     3.3222     1.8844 H       
  61 H61            2.9737     4.3280     1.1908 H       
  62 H62            2.1294     3.1372     0.1723 H       
@<TRIPOS>BOND
   1    1    2 2
   2    1    3 1
   3    2    5 1
   4    3    4 1
   5    3   34 1
   6    3   38 1
   7    4    5 1
   8    4   11 1
   9    5    6 1
  10    5   39 1
  11    6    7 1
  12    7    8 1
  13    7   40 1
  14    7   41 1
  15    8    9 2
  16    8   10 am
  17   10   12 1
  18   10   42 1
  19   11   22 ar
  20   11   23 ar
  21   12   13 ar
  22   12   17 ar
  23   13   14 ar
  24   13   18 1
  25   14   15 ar
  26   14   43 1
  27   15   16 ar
  28   15   19 1
  29   16   17 ar
  30   16   44 1
  31   17   45 1
  32   19   20 2
  33   19   21 2
  34   19   28 am
  35   22   26 ar
  36   22   27 1
  37   23   24 ar
  38   23   33 1
  39   24   25 ar
  40   24   46 1
  41   25   26 ar
  42   25   32 1
  43   26   29 1
  44   27   31 1
  45   27   47 1
  46   27   48 1
  47   28   49 1
  48   28   50 1
  49   29   30 1
  50   29   51 1
  51   29   52 1
  52   30   31 1
  53   30   53 1
  54   30   54 1
  55   31   55 1
  56   31   56 1
  57   32   57 1
  58   32   58 1
  59   32   59 1
  60   33   60 1
  61   33   61 1
  62   33   62 1
  63   34   35 1
  64   34   36 1
  65   34   37 1

#	End of record

