#	Name: ASD08070102
#	Creating user name:	WinNT
#	Creation time:	15. 06. 2019 21:14

#	Modifying user name:	WinNT
#	Modification time:	15. 06. 2019 21:14

#	Program:	/corina/corina34_cracker 3.40 0067  02.08.2006

@<TRIPOS>MOLECULE
ASD08070102
  40   40    0    0    0
SMALL
NO_CHARGES


@<TRIPOS>ATOM
   1 C1             0.1638     1.3004     0.4028 C.ar    
   2 C2             0.1472    -0.0780     0.3424 C.ar    
   3 C3             1.3563     1.9876     0.2642 C.ar    
   4 C4             2.5397     1.2988     0.0643 C.ar    
   5 C5             2.5371    -0.0791     0.0014 C.ar    
   6 C6             1.3372    -0.7788     0.1410 C.ar    
   7 C7             1.3269    -2.2557     0.0747 C.2     
   8 O8             2.3647    -2.8634    -0.1016 O.2     
   9 C9             0.0947    -4.7161    -1.4575 C.3     
  10 C10            0.1385    -4.3825     0.0351 C.3     
  11 N11            0.1667    -2.9282     0.2098 N.am    
  12 C12           -1.0844    -4.9461     0.7118 C.2     
  13 O13           -1.8534    -4.2086     1.2816 O.2     
  14 C14            0.2421    -6.2272    -1.6468 C.3     
  15 C15            0.0736    -6.5745    -3.1273 C.3     
  16 C16            1.6291    -6.6676    -1.1743 C.3     
  17 O17           -1.3193    -6.2673     0.6816 O.3     
  18 C18           -2.5162    -6.7396     1.3545 C.3     
  19 C19            3.8342     2.0557    -0.0857 C.3     
  20 H20           -0.7570     1.8442     0.5541 H       
  21 H21           -0.7844    -0.6133     0.4510 H       
  22 H22            1.3638     3.0665     0.3119 H       
  23 H23            3.4612    -0.6156    -0.1553 H       
  24 H24           -0.8573    -4.3888    -1.8752 H       
  25 H25            0.9106    -4.2047    -1.9682 H       
  26 H26            1.0331    -4.8192     0.4789 H       
  27 H27           -0.6495    -2.4494     0.4226 H       
  28 H28           -0.5210    -6.7426    -1.0636 H       
  29 H29            0.8368    -6.0591    -3.7105 H       
  30 H30            0.1786    -7.6510    -3.2622 H       
  31 H31           -0.9145    -6.2608    -3.4640 H       
  32 H32            1.7157    -6.5043    -0.1001 H       
  33 H33            1.7684    -7.7262    -1.3933 H       
  34 H34            2.3912    -6.0859    -1.6928 H       
  35 H35           -2.4676    -6.4748     2.4107 H       
  36 H36           -3.3935    -6.2758     0.9036 H       
  37 H37           -2.5859    -7.8228     1.2543 H       
  38 H38            4.2910     2.1920     0.8945 H       
  39 H39            4.5120     1.4928    -0.7274 H       
  40 H40            3.6358     3.0299    -0.5326 H       
@<TRIPOS>BOND
   1    1    2 ar
   2    1    3 ar
   3    1   20 1
   4    2    6 ar
   5    2   21 1
   6    3    4 ar
   7    3   22 1
   8    4    5 ar
   9    4   19 1
  10    5    6 ar
  11    5   23 1
  12    6    7 1
  13    7    8 2
  14    7   11 am
  15    9   14 1
  16    9   10 1
  17    9   24 1
  18    9   25 1
  19   10   12 1
  20   10   11 1
  21   10   26 1
  22   11   27 1
  23   12   13 2
  24   12   17 1
  25   14   15 1
  26   14   16 1
  27   14   28 1
  28   15   29 1
  29   15   30 1
  30   15   31 1
  31   16   32 1
  32   16   33 1
  33   16   34 1
  34   17   18 1
  35   18   35 1
  36   18   36 1
  37   18   37 1
  38   19   38 1
  39   19   39 1
  40   19   40 1

#	End of record

