#	Name: ASD00100120
#	Creating user name:	WinNT
#	Creation time:	15. 06. 2019 18:30

#	Modifying user name:	WinNT
#	Modification time:	15. 06. 2019 18:30

#	Program:	/corina/corina34_cracker 3.40 0067  02.08.2006

@<TRIPOS>MOLECULE
ASD00100120
  37   38    0    0    0
SMALL
NO_CHARGES


@<TRIPOS>ATOM
   1 C1            -0.0157     1.3046     0.0092 C.2     
   2 N2             0.0021    -0.0041     0.0020 N.2     
   3 C3             1.2955    -0.4279    -0.0126 C.2     
   4 C4             2.0935     0.6771    -0.0143 C.2     
   5 N5             1.2683     1.7628    -0.0006 N.pl3   
   6 C6             1.7502    -1.8266    -0.0237 C.2     
   7 O7             2.9392    -2.0791    -0.0361 O.2     
   8 O8             0.8483    -2.8286    -0.0202 O.3     
   9 C9             1.6860     3.1670     0.0022 C.3     
  10 C10            1.7237     3.6770     1.4198 C.ar    
  11 C11            2.8540     3.4777     2.1996 C.ar    
  12 C12            2.8856     3.9484     3.5040 C.ar    
  13 C13            1.7921     4.6141     4.0237 C.ar    
  14 C14            0.6670     4.8109     3.2449 C.ar    
  15 C15            0.6353     4.3481     1.9421 C.ar    
  16 O16            3.9281     2.8222     1.6863 O.3     
  17 C17            5.0568     2.6534     2.5462 C.3     
  18 N18           -1.1519     2.0941     0.0191 N.pl3   
  19 C19            1.3688    -4.1840    -0.0318 C.3     
  20 C20            0.2051    -5.1773    -0.0258 C.3     
  21 H21            3.1734     0.6903    -0.0245 H       
  22 H22            2.6782     3.2518    -0.4410 H       
  23 H23            0.9772     3.7580    -0.5778 H       
  24 H24            3.7641     3.7942     4.1131 H       
  25 H25            1.8162     4.9807     5.0393 H       
  26 H26           -0.1870     5.3310     3.6531 H       
  27 H27           -0.2430     4.5074     1.3341 H       
  28 H28            5.4293     3.6308     2.8529 H       
  29 H29            4.7604     2.0847     3.4275 H       
  30 H30            5.8418     2.1160     2.0141 H       
  31 H31           -2.0295     1.6810     0.0215 H       
  32 H32           -1.0708     3.0607     0.0236 H       
  33 H33            1.9705    -4.3346    -0.9281 H       
  34 H34            1.9871    -4.3433     0.8517 H       
  35 H35           -0.3965    -5.0267     0.8706 H       
  36 H36           -0.4131    -5.0180    -0.9093 H       
  37 H37            0.5959    -6.1948    -0.0344 H       
@<TRIPOS>BOND
   1    1    2 2
   2    1    5 1
   3    1   18 1
   4    2    3 1
   5    3    4 2
   6    3    6 1
   7    4    5 1
   8    4   21 1
   9    5    9 1
  10    6    7 2
  11    6    8 1
  12    8   19 1
  13    9   10 1
  14    9   22 1
  15    9   23 1
  16   10   11 ar
  17   10   15 ar
  18   11   12 ar
  19   11   16 1
  20   12   13 ar
  21   12   24 1
  22   13   14 ar
  23   13   25 1
  24   14   15 ar
  25   14   26 1
  26   15   27 1
  27   16   17 1
  28   17   28 1
  29   17   29 1
  30   17   30 1
  31   18   31 1
  32   18   32 1
  33   19   20 1
  34   19   33 1
  35   19   34 1
  36   20   35 1
  37   20   36 1
  38   20   37 1

#	End of record

