#	Name: ASD01917337
#	Creating user name:	WinNT
#	Creation time:	15. 06. 2019 20:09

#	Modifying user name:	WinNT
#	Modification time:	15. 06. 2019 20:09

#	Program:	/corina/corina34_cracker 3.40 0067  02.08.2006

@<TRIPOS>MOLECULE
ASD01917337
  52   55    0    0    0
SMALL
NO_CHARGES


@<TRIPOS>ATOM
   1 C1            -0.0083     1.3971     0.0068 C.ar    
   2 C2             0.0135     0.0028     0.0026 C.ar    
   3 N3             1.1352     2.0761    -0.0067 N.ar    
   4 N4             1.1688    -0.6370    -0.0148 N.ar    
   5 C5             2.3019     0.0425    -0.0283 C.ar    
   6 C6             2.2837     1.4297    -0.0241 C.ar    
   7 C7            -1.3014     2.1199     0.0202 C.2     
   8 O8            -2.3452     1.4977     0.0275 O.2     
   9 N9            -1.3202     3.4675     0.0243 N.am    
  10 C10           -2.5989     4.1823     0.0375 C.3     
  11 C11           -3.4785     3.8402    -1.1779 C.3     
  12 C12           -4.8708     4.4391    -0.9700 C.3     
  13 C13           -4.7706     5.9457    -0.7237 C.3     
  14 C14           -3.8355     6.1972     0.4722 C.3     
  15 C15           -4.2296     5.1995     1.5857 C.3     
  16 C16           -3.4309     3.8906     1.3077 C.3     
  17 C17           -2.4225     5.7238     0.0400 C.3     
  18 C18           -3.8669     7.6297     0.9389 C.2     
  19 N19           -5.0260     8.1779     1.3542 N.am    
  20 O20           -2.8492     8.2893     0.9408 O.2     
  21 C21           -5.0364     9.4662     1.8866 C.ar    
  22 C22           -6.2441    10.0755     2.2161 C.ar    
  23 N23           -3.8956    10.1125     2.0855 N.ar    
  24 N24           -6.2497    11.2949     2.7203 N.ar    
  25 C25           -5.1102    11.9379     2.9125 C.ar    
  26 C26           -3.9092    11.3340     2.5910 C.ar    
  27 C27           -2.6132    12.0690     2.8174 C.3     
  28 C28            3.5795     2.1989    -0.0400 C.3     
  29 H29           -0.9126    -0.5527     0.0139 H       
  30 H30            3.2451    -0.4835    -0.0425 H       
  31 H31           -0.4870     3.9642     0.0185 H       
  32 H32           -3.0324     4.2587    -2.0801 H       
  33 H33           -3.5582     2.7577    -1.2772 H       
  34 H34           -5.4774     4.2583    -1.8575 H       
  35 H35           -5.3434     3.9637    -0.1105 H       
  36 H36           -4.3676     6.4343    -1.6108 H       
  37 H37           -5.7603     6.3458    -0.5032 H       
  38 H38           -3.9592     5.6018     2.5620 H       
  39 H39           -5.3001     4.9979     1.5464 H       
  40 H40           -4.1169     3.0636     1.1245 H       
  41 H41           -2.7705     3.6526     2.1416 H       
  42 H42           -1.6598     6.0288     0.7564 H       
  43 H43           -2.1879     6.0919    -0.9588 H       
  44 H44           -5.8530     7.6760     1.2826 H       
  45 H45           -7.1750     9.5510     2.0590 H       
  46 H46           -5.1178    12.9359     3.3253 H       
  47 H47           -2.3573    12.6381     1.9236 H       
  48 H48           -2.7239    12.7492     3.6619 H       
  49 H49           -1.8209    11.3514     3.0304 H       
  50 H50            3.9060     2.3818     0.9838 H       
  51 H51            4.3390     1.6203    -0.5657 H       
  52 H52            3.4307     3.1510    -0.5495 H       
@<TRIPOS>BOND
   1    1    2 ar
   2    1    3 ar
   3    1    7 1
   4    2    4 ar
   5    2   29 1
   6    3    6 ar
   7    4    5 ar
   8    5    6 ar
   9    5   30 1
  10    6   28 1
  11    7    8 2
  12    7    9 am
  13    9   10 1
  14    9   31 1
  15   10   11 1
  16   10   16 1
  17   10   17 1
  18   11   12 1
  19   11   32 1
  20   11   33 1
  21   12   13 1
  22   12   34 1
  23   12   35 1
  24   13   14 1
  25   13   36 1
  26   13   37 1
  27   14   15 1
  28   14   17 1
  29   14   18 1
  30   15   16 1
  31   15   38 1
  32   15   39 1
  33   16   40 1
  34   16   41 1
  35   17   42 1
  36   17   43 1
  37   18   19 am
  38   18   20 2
  39   19   21 1
  40   19   44 1
  41   21   22 ar
  42   21   23 ar
  43   22   24 ar
  44   22   45 1
  45   23   26 ar
  46   24   25 ar
  47   25   26 ar
  48   25   46 1
  49   26   27 1
  50   27   47 1
  51   27   48 1
  52   27   49 1
  53   28   50 1
  54   28   51 1
  55   28   52 1

#	End of record

