#	Name: ASD04800007
#	Creating user name:	WinNT
#	Creation time:	15. 06. 2019 20:52

#	Modifying user name:	WinNT
#	Modification time:	15. 06. 2019 20:52

#	Program:	/corina/corina34_cracker 3.40 0067  02.08.2006

@<TRIPOS>MOLECULE
ASD04800007
  38   39    0    0    0
SMALL
NO_CHARGES


@<TRIPOS>ATOM
   1 C1            -0.0167     1.3781     0.0096 C.ar    
   2 C2             0.0021    -0.0041     0.0020 C.ar    
   3 C3             1.2084    -0.6789    -0.0132 C.ar    
   4 C4             2.3960     0.0285    -0.0212 C.ar    
   5 C5             2.3773     1.4107    -0.0145 C.ar    
   6 C6             1.1710     2.0855     0.0021 C.ar    
   7 C7             3.6720     2.1819    -0.0228 C.3     
   8 C8             4.0969     2.4497    -1.4680 C.3     
   9 N9             5.3589     3.2014    -1.4761 N.3     
  10 C10            5.9205     3.2726    -2.8311 C.3     
  11 C11            6.3227     2.6220    -0.5317 C.3     
  12 C12            7.5659     3.5115    -0.4594 C.3     
  13 C13            8.1911     3.6208    -1.8528 C.3     
  14 C14            7.1517     4.1815    -2.8274 C.3     
  15 C15            9.3994     4.5578    -1.7991 C.3     
  16 N16           10.0691     4.5686    -3.1065 N.3     
  17 H17           -0.9592     1.9054     0.0170 H       
  18 H18           -0.9258    -0.5567     0.0083 H       
  19 H19            1.2231    -1.7588    -0.0184 H       
  20 H20            3.3386    -0.4987    -0.0324 H       
  21 H21            1.1563     3.1654     0.0069 H       
  22 H22            3.5335     3.1300     0.4968 H       
  23 H23            4.4443     1.6008     0.4812 H       
  24 H24            4.2354     1.5016    -1.9876 H       
  25 H25            3.3246     3.0308    -1.9720 H       
  26 H26            6.2077     2.2733    -3.1581 H       
  27 H27            5.1727     3.6768    -3.5133 H       
  28 H28            5.8670     2.5537     0.4561 H       
  29 H29            6.6080     1.6257    -0.8695 H       
  30 H30            7.2833     4.5040    -0.1084 H       
  31 H31            8.2875     3.0729     0.2299 H       
  32 H32            8.5092     2.6335    -2.1878 H       
  33 H33            7.5774     4.2216    -3.8301 H       
  34 H34            6.8626     5.1845    -2.5137 H       
  35 H35            9.0666     5.5661    -1.5530 H       
  36 H36           10.0961     4.2089    -1.0368 H       
  37 H37           10.8712     5.1807    -3.0968 H       
  38 H38           10.3300     3.6351    -3.3869 H       
@<TRIPOS>BOND
   1    1    2 ar
   2    1    6 ar
   3    1   17 1
   4    2    3 ar
   5    2   18 1
   6    3    4 ar
   7    3   19 1
   8    4    5 ar
   9    4   20 1
  10    5    6 ar
  11    5    7 1
  12    6   21 1
  13    7    8 1
  14    7   22 1
  15    7   23 1
  16    8    9 1
  17    8   24 1
  18    8   25 1
  19    9   10 1
  20    9   11 1
  21   10   14 1
  22   10   26 1
  23   10   27 1
  24   11   12 1
  25   11   28 1
  26   11   29 1
  27   12   13 1
  28   12   30 1
  29   12   31 1
  30   13   14 1
  31   13   15 1
  32   13   32 1
  33   14   33 1
  34   14   34 1
  35   15   16 1
  36   15   35 1
  37   15   36 1
  38   16   37 1
  39   16   38 1

#	End of record

