#	Name: ASD07930741
#	Creating user name:	WinNT
#	Creation time:	15. 06. 2019 21:13

#	Modifying user name:	WinNT
#	Modification time:	15. 06. 2019 21:13

#	Program:	/corina/corina34_cracker 3.40 0067  02.08.2006

@<TRIPOS>MOLECULE
ASD07930741
  45   47    0    0    0
SMALL
NO_CHARGES


@<TRIPOS>ATOM
   1 C1             1.9048    -1.4694     2.8253 C.3     
   2 N2            -0.7061    -0.2224     2.0908 N.2     
   3 N3            -1.1386    -2.2869     1.0849 N.pl3   
   4 C4            -0.9005    -2.8248    -0.2586 C.3     
   5 C5             0.4795    -3.4957    -0.2979 C.3     
   6 S6             1.7248    -2.2711     0.2159 S.o2    
   7 N7             1.0823    -1.6651     1.6289 N.am    
   8 C8            -0.2703    -1.3555     1.6165 C.2     
   9 C9            -0.9443    -1.6864    -1.2799 C.3     
  10 O10            2.9278    -2.9127     0.6164 O.2     
  11 O11            1.7398    -1.1634    -0.6740 O.2     
  12 C12           -1.9634    -3.8404    -0.5898 C.ar    
  13 C13           -2.1016    -4.9770     0.1884 C.ar    
  14 C14           -3.0788    -5.9095    -0.1172 C.ar    
  15 C15           -3.9147    -5.7045    -1.1981 C.ar    
  16 C16           -3.7758    -4.5689    -1.9746 C.ar    
  17 C17           -2.8045    -3.6347    -1.6672 C.ar    
  18 F18           -1.2834    -5.1766     1.2448 F       
  19 C19           -4.6878    -4.3467    -3.1536 C.3     
  20 O20           -5.8466    -3.6257    -2.7302 O.3     
  21 C21           -6.7756    -3.3414    -3.6776 C.ar    
  22 C22           -7.9250    -2.6421    -3.3271 C.ar    
  23 N23           -6.5767    -3.7274    -4.9265 N.ar    
  24 C24           -7.4540    -3.4714    -5.8787 C.ar    
  25 C25           -8.6197    -2.7860    -5.6018 C.ar    
  26 C26           -8.8645    -2.3584    -4.3038 C.ar    
  27 Cl27          -8.1790    -2.1321    -1.6873 Cl      
  28 H28            2.3305    -0.4660     2.8134 H       
  29 H29            1.2868    -1.5913     3.7149 H       
  30 H30            2.7089    -2.2051     2.8379 H       
  31 H31           -0.0813     0.4210     2.4606 H       
  32 H32           -1.9074    -2.5824     1.5973 H       
  33 H33            0.4950    -4.3446     0.3858 H       
  34 H34            0.6943    -3.8354    -1.3111 H       
  35 H35           -0.1738    -0.9536    -1.0405 H       
  36 H36           -0.7673    -2.0868    -2.2782 H       
  37 H37           -1.9231    -1.2078    -1.2488 H       
  38 H38           -3.1873    -6.7967     0.4890 H       
  39 H39           -4.6767    -6.4317    -1.4368 H       
  40 H40           -2.6969    -2.7481    -2.2744 H       
  41 H41           -4.1618    -3.7733    -3.9168 H       
  42 H42           -4.9895    -5.3095    -3.5660 H       
  43 H43           -7.2571    -3.8022    -6.8877 H       
  44 H44           -9.3319    -2.5810    -6.3874 H       
  45 H45           -9.7688    -1.8203    -4.0608 H       
@<TRIPOS>BOND
   1    1    7 1
   2    1   28 1
   3    1   29 1
   4    1   30 1
   5    2    8 2
   6    2   31 1
   7    3    4 1
   8    3    8 1
   9    3   32 1
  10    4    5 1
  11    4    9 1
  12    4   12 1
  13    5    6 1
  14    5   33 1
  15    5   34 1
  16    6    7 am
  17    6   10 2
  18    6   11 2
  19    7    8 1
  20    9   35 1
  21    9   36 1
  22    9   37 1
  23   12   13 ar
  24   12   17 ar
  25   13   14 ar
  26   13   18 1
  27   14   15 ar
  28   14   38 1
  29   15   16 ar
  30   15   39 1
  31   16   17 ar
  32   16   19 1
  33   17   40 1
  34   19   20 1
  35   19   41 1
  36   19   42 1
  37   20   21 1
  38   21   22 ar
  39   21   23 ar
  40   22   27 1
  41   22   26 ar
  42   23   24 ar
  43   24   25 ar
  44   24   43 1
  45   25   26 ar
  46   25   44 1
  47   26   45 1

#	End of record

