#	Name: ASD01910189
#	Creating user name:	WinNT
#	Creation time:	15. 06. 2019 19:55

#	Modifying user name:	WinNT
#	Modification time:	15. 06. 2019 19:55

#	Program:	/corina/corina34_cracker 3.40 0067  02.08.2006

@<TRIPOS>MOLECULE
ASD01910189
  37   39    0    0    0
SMALL
NO_CHARGES


@<TRIPOS>ATOM
   1 C1            -0.2188     1.3750     0.0962 C.ar    
   2 C2             0.0372     0.0376     0.3288 C.ar    
   3 C3             1.3444    -0.4331     0.3192 C.ar    
   4 C4             2.3933     0.4416     0.0756 C.ar    
   5 C5             2.1329     1.7847    -0.1577 C.ar    
   6 C6             0.8236     2.2490    -0.1467 C.ar    
   7 N7             3.1874     2.6698    -0.4032 N.am    
   8 C8             4.2614     2.2599    -1.1068 C.2     
   9 C9             5.3286     3.2220    -1.4541 C.ar    
  10 N10            1.6028    -1.7878     0.5554 N.am    
  11 C11            0.7247    -2.7232     0.1426 C.2     
  12 C12            6.4420     2.8006    -2.1826 C.ar    
  13 C13            7.4347     3.7033    -2.5043 C.ar    
  14 C14            7.3291     5.0237    -2.1060 C.ar    
  15 C15            6.2272     5.4490    -1.3829 C.ar    
  16 C16            5.2243     4.5570    -1.0597 C.ar    
  17 O17           -0.2424    -2.3995    -0.5139 O.2     
  18 O18            4.3524     1.0991    -1.4559 O.2     
  19 C19            0.9444    -4.1714     0.4968 C.3     
  20 Cl20           6.1036     7.1082    -0.8876 Cl      
  21 C21           -0.0878    -5.1850    -0.0013 C.3     
  22 C22            1.3012    -5.1306    -0.6406 C.3     
  23 H23           -1.2361     1.7375     0.0997 H       
  24 H24           -0.7797    -0.6428     0.5187 H       
  25 H25            3.4103     0.0782     0.0680 H       
  26 H26            0.6202     3.2939    -0.3286 H       
  27 H27            3.1459     3.5788    -0.0671 H       
  28 H28            2.4138    -2.0537     1.0162 H       
  29 H29            6.5265     1.7699    -2.4938 H       
  30 H30            8.2966     3.3780    -3.0680 H       
  31 H31            8.1094     5.7259    -2.3598 H       
  32 H32            4.3652     4.8893    -0.4957 H       
  33 H33            1.3994    -4.3535     1.4704 H       
  34 H34           -0.3117    -6.0341     0.6445 H       
  35 H35           -0.9258    -4.8043    -0.5852 H       
  36 H36            1.3769    -4.7141    -1.6451 H       
  37 H37            1.9911    -5.9439    -0.4154 H       
@<TRIPOS>BOND
   1    1    2 ar
   2    1    6 ar
   3    1   23 1
   4    2    3 ar
   5    2   24 1
   6    3    4 ar
   7    3   10 1
   8    4    5 ar
   9    4   25 1
  10    5    6 ar
  11    5    7 1
  12    6   26 1
  13    7    8 am
  14    7   27 1
  15    8    9 1
  16    8   18 2
  17    9   12 ar
  18    9   16 ar
  19   10   11 am
  20   10   28 1
  21   11   17 2
  22   11   19 1
  23   12   13 ar
  24   12   29 1
  25   13   14 ar
  26   13   30 1
  27   14   15 ar
  28   14   31 1
  29   15   16 ar
  30   15   20 1
  31   16   32 1
  32   19   21 1
  33   19   22 1
  34   19   33 1
  35   21   22 1
  36   21   34 1
  37   21   35 1
  38   22   36 1
  39   22   37 1

#	End of record

