#	Name: ASD09200032
#	Creating user name:	WinNT
#	Creation time:	15. 06. 2019 21:21

#	Modifying user name:	WinNT
#	Modification time:	15. 06. 2019 21:21

#	Program:	/corina/corina34_cracker 3.40 0067  02.08.2006

@<TRIPOS>MOLECULE
ASD09200032
  49   52    0    0    0
SMALL
NO_CHARGES


@<TRIPOS>ATOM
   1 N1            -0.0160     1.3299     0.0094 N.am    
   2 C2             0.0021    -0.0041     0.0020 C.2     
   3 S3             1.2782    -0.9052    -0.0145 S.o     
   4 C4             0.4608    -2.4791    -0.0144 C.2     
   5 C5            -0.8393    -2.1593    -0.0005 C.2     
   6 N6            -1.0585    -0.7971     0.0132 N.am    
   7 C7            -1.9271    -3.1618     0.0046 C.ar    
   8 C8            -1.6177    -4.5188    -0.0049 C.ar    
   9 C9            -2.6580    -5.4676     0.0004 C.ar    
  10 C10           -4.0081    -5.0290     0.0154 C.ar    
  11 C11           -4.2900    -3.6578     0.0251 C.ar    
  12 C12           -3.2618    -2.7405     0.0246 C.ar    
  13 C13           -2.3770    -6.8390    -0.0093 C.ar    
  14 C14           -3.4448    -7.7633    -0.0041 C.ar    
  15 C15           -4.7778    -7.3051     0.0104 C.ar    
  16 C16           -5.0555    -5.9789     0.0208 C.ar    
  17 C17            1.2379     2.0956     0.0015 C.3     
  18 C18            1.1994     3.0929    -1.1607 C.3     
  19 C19           -0.0615     3.9528    -1.0482 C.3     
  20 C20           -1.3004     3.0588    -1.1376 C.3     
  21 C21           -1.2903     2.0612     0.0193 C.3     
  22 C22           -0.0591     4.6879     0.2937 C.3     
  23 N23           -0.0850     4.9326    -2.1425 N.3     
  24 C24           -3.1761    -9.1513    -0.0138 C.2     
  25 N25           -4.1702   -10.0141    -0.0089 N.2     
  26 H26            1.7133    -0.7903    -1.2819 H       
  27 H27            0.9063    -3.4629    -0.0237 H       
  28 H28           -1.9575    -0.4332     0.0241 H       
  29 H29           -0.5872    -4.8417    -0.0166 H       
  30 H30           -5.3152    -3.3183     0.0364 H       
  31 H31           -3.4883    -1.6845     0.0322 H       
  32 H32           -1.3545    -7.1864    -0.0211 H       
  33 H33           -5.5875    -8.0198     0.0137 H       
  34 H34           -6.0827    -5.6455     0.0326 H       
  35 H35            1.3424     2.6353     0.9427 H       
  36 H36            2.0802     1.4160    -0.1279 H       
  37 H37            2.0809     3.7327    -1.1205 H       
  38 H38            1.1862     2.5498    -2.1058 H       
  39 H39           -2.1982     3.6744    -1.0808 H       
  40 H40           -1.2900     2.5161    -2.0828 H       
  41 H41           -2.1165     1.3597    -0.0959 H       
  42 H42           -1.3912     2.5959     0.9638 H       
  43 H43            0.8226     5.3256     0.3570 H       
  44 H44           -0.9571     5.3004     0.3740 H       
  45 H45           -0.0411     3.9612     1.1059 H       
  46 H46           -0.9086     5.5131    -2.0905 H       
  47 H47            0.7535     5.4937    -2.1435 H       
  48 H48           -2.1553    -9.5036    -0.0253 H       
  49 H49           -3.9859   -10.9664    -0.0156 H       
@<TRIPOS>BOND
   1    1    2 am
   2    1   17 1
   3    1   21 1
   4    2    3 2
   5    2    6 am
   6    3    4 1
   7    3   26 1
   8    4    5 2
   9    4   27 1
  10    5    6 1
  11    5    7 1
  12    6   28 1
  13    7    8 ar
  14    7   12 ar
  15    8    9 ar
  16    8   29 1
  17    9   10 ar
  18    9   13 ar
  19   10   11 ar
  20   10   16 ar
  21   11   12 ar
  22   11   30 1
  23   12   31 1
  24   13   14 ar
  25   13   32 1
  26   14   15 ar
  27   14   24 1
  28   15   16 ar
  29   15   33 1
  30   16   34 1
  31   17   18 1
  32   17   35 1
  33   17   36 1
  34   18   19 1
  35   18   37 1
  36   18   38 1
  37   19   20 1
  38   19   22 1
  39   19   23 1
  40   20   21 1
  41   20   39 1
  42   20   40 1
  43   21   41 1
  44   21   42 1
  45   22   43 1
  46   22   44 1
  47   22   45 1
  48   23   46 1
  49   23   47 1
  50   24   25 2
  51   24   48 1
  52   25   49 1

#	End of record

