#	Name: ASD02038125
#	Creating user name:	WinNT
#	Creation time:	15. 06. 2019 20:16

#	Modifying user name:	WinNT
#	Modification time:	15. 06. 2019 20:16

#	Program:	/corina/corina34_cracker 3.40 0067  02.08.2006

@<TRIPOS>MOLECULE
ASD02038125
  48   50    0    0    0
SMALL
NO_CHARGES


@<TRIPOS>ATOM
   1 C1            -0.1690     1.1572     0.1081 C.ar    
   2 C2            -0.0902    -0.2187    -0.0056 C.ar    
   3 C3             0.9859     1.9141     0.1990 C.ar    
   4 C4             2.2222     1.2960     0.1763 C.ar    
   5 C5             2.3037    -0.0856     0.0622 C.ar    
   6 C6             1.1418    -0.8420    -0.0289 C.ar    
   7 N7             3.5512    -0.7134     0.0385 N.3     
   8 C8             6.8895    -3.1260     0.9773 C.3     
   9 C9             6.7008    -4.6399     1.0930 C.3     
  10 C10            8.0559    -5.3353     0.9485 C.3     
  11 O11            6.1380    -4.9537     2.3684 O.3     
  12 O12            7.8660    -6.7516     0.9398 O.3     
  13 C13            8.9792    -7.5230     0.8173 C.ar    
  14 C14            8.8667    -8.9053     0.8017 C.ar    
  15 C15            9.9974    -9.6889     0.6773 C.ar    
  16 C16           11.2452    -9.0933     0.5675 C.ar    
  17 C17           11.3576    -7.7110     0.5822 C.ar    
  18 C18           10.2264    -6.9273     0.7022 C.ar    
  19 O19           12.3584    -9.8648     0.4460 O.3     
  20 C20            3.4052    -2.1703    -0.0873 C.3     
  21 C21            4.7908    -2.8122    -0.1896 C.3     
  22 N22            5.5776    -2.4656     1.0023 N.3     
  23 C23            5.7235    -1.0087     1.1280 C.3     
  24 C24            4.3379    -0.3668     1.2303 C.3     
  25 Cl25           0.8821     3.6412     0.3411 Cl      
  26 H26           -1.1337     1.6424     0.1214 H       
  27 H27           -0.9934    -0.8067    -0.0760 H       
  28 H28            3.1235     1.8868     0.2470 H       
  29 H29            1.2022    -1.9167    -0.1174 H       
  30 H30            7.4914    -2.7699     1.8134 H       
  31 H31            7.3956    -2.8934     0.0404 H       
  32 H32            6.0302    -4.9836     0.3054 H       
  33 H33            8.5254    -5.0259     0.0147 H       
  34 H34            8.6968    -5.0598     1.7860 H       
  35 H35            6.6825    -4.6760     3.1177 H       
  36 H36            7.8951    -9.3690     0.8872 H       
  37 H37            9.9099   -10.7653     0.6659 H       
  38 H38           12.3292    -7.2473     0.4967 H       
  39 H39           10.3139    -5.8509     0.7136 H       
  40 H40           12.5955   -10.0720    -0.4684 H       
  41 H41            2.8872    -2.5609     0.7886 H       
  42 H42            2.8300    -2.4021    -0.9837 H       
  43 H43            4.6860    -3.8953    -0.2538 H       
  44 H44            5.2982    -2.4422    -1.0805 H       
  45 H45            6.2988    -0.7770     2.0244 H       
  46 H46            6.2415    -0.6182     0.2521 H       
  47 H47            4.4427     0.7162     1.2946 H       
  48 H48            3.8306    -0.7369     2.1212 H       
@<TRIPOS>BOND
   1    1    2 ar
   2    1    3 ar
   3    1   26 1
   4    2    6 ar
   5    2   27 1
   6    3    4 ar
   7    3   25 1
   8    4    5 ar
   9    4   28 1
  10    5    6 ar
  11    5    7 1
  12    6   29 1
  13    7   20 1
  14    7   24 1
  15    8    9 1
  16    8   22 1
  17    8   30 1
  18    8   31 1
  19    9   11 1
  20    9   10 1
  21    9   32 1
  22   10   12 1
  23   10   33 1
  24   10   34 1
  25   11   35 1
  26   12   13 1
  27   13   14 ar
  28   13   18 ar
  29   14   15 ar
  30   14   36 1
  31   15   16 ar
  32   15   37 1
  33   16   17 ar
  34   16   19 1
  35   17   18 ar
  36   17   38 1
  37   18   39 1
  38   19   40 1
  39   20   21 1
  40   20   41 1
  41   20   42 1
  42   21   22 1
  43   21   43 1
  44   21   44 1
  45   22   23 1
  46   23   24 1
  47   23   45 1
  48   23   46 1
  49   24   47 1
  50   24   48 1

#	End of record

