#	Name: ASD03092177
#	Creating user name:	WinNT
#	Creation time:	15. 06. 2019 20:32

#	Modifying user name:	WinNT
#	Modification time:	15. 06. 2019 20:32

#	Program:	/corina/corina34_cracker 3.40 0067  02.08.2006

@<TRIPOS>MOLECULE
ASD03092177
  43   46    0    0    0
SMALL
NO_CHARGES


@<TRIPOS>ATOM
   1 N1             0.2845     0.8888    -0.4005 N.pl3   
   2 C2             0.0792    -0.3650     0.0941 C.2     
   3 C3            -1.2622    -0.5052     0.3100 C.2     
   4 C4            -1.8834     0.6933    -0.0632 C.2     
   5 N5            -0.9596     1.5271    -0.4823 N.2     
   6 C6             1.1184    -1.3863     0.3495 C.ar    
   7 C7             0.8931    -2.4313     1.2529 C.ar    
   8 C8             1.8896    -3.3618     1.4609 C.ar    
   9 N9             3.0412    -3.2756     0.8225 N.ar    
  10 C10            3.2945    -2.3069    -0.0370 C.ar    
  11 C11            2.3519    -1.3377    -0.3098 C.ar    
  12 C12            1.5773     1.4678    -0.7740 C.3     
  13 N13           -3.2564     0.9592     0.0041 N.pl3   
  14 C14           -3.7360     2.2408    -0.2885 C.ar    
  15 C15           -5.0157     2.4028    -0.8021 C.ar    
  16 C16           -5.4908     3.6682    -1.0910 C.ar    
  17 C17           -4.6921     4.7779    -0.8697 C.ar    
  18 C18           -3.4075     4.6188    -0.3545 C.ar    
  19 C19           -2.9342     3.3515    -0.0598 C.ar    
  20 O20           -2.8315     5.8502    -0.2305 O.3     
  21 O21           -4.9202     6.1103    -1.0680 O.3     
  22 C22           -3.9195     6.7915    -0.2885 C.3     
  23 F23           -4.4003     7.0668     0.9961 F       
  24 F24           -3.5167     7.9694    -0.9269 F       
  25 C25            1.8127     1.2621    -2.2482 C.2     
  26 N26            2.9461     1.7157    -2.8194 N.am    
  27 O27            0.9824     0.6883    -2.9206 O.2     
  28 C28            3.1749     1.5157    -4.2525 C.3     
  29 H29           -1.7558    -1.3837     0.6986 H       
  30 H30           -0.0468    -2.5076     1.7794 H       
  31 H31            1.7253    -4.1718     2.1560 H       
  32 H32            4.2512    -2.2753    -0.5372 H       
  33 H33            2.5660    -0.5478    -1.0144 H       
  34 H34            1.5753     2.5349    -0.5518 H       
  35 H35            2.3709     0.9803    -0.2078 H       
  36 H36           -3.8751     0.2550     0.2535 H       
  37 H37           -5.6404     1.5392    -0.9763 H       
  38 H38           -6.4866     3.7919    -1.4905 H       
  39 H39           -1.9388     3.2261     0.3400 H       
  40 H40            3.6102     2.1746    -2.2816 H       
  41 H41            3.1769     0.4486    -4.4747 H       
  42 H42            2.3813     2.0032    -4.8187 H       
  43 H43            4.1368     1.9465    -4.5304 H       
@<TRIPOS>BOND
   1    1    2 1
   2    1   12 1
   3    1    5 1
   4    2    3 2
   5    2    6 1
   6    3    4 1
   7    3   29 1
   8    4    5 2
   9    4   13 1
  10    6    7 ar
  11    6   11 ar
  12    7    8 ar
  13    7   30 1
  14    8    9 ar
  15    8   31 1
  16    9   10 ar
  17   10   11 ar
  18   10   32 1
  19   11   33 1
  20   12   25 1
  21   12   34 1
  22   12   35 1
  23   13   14 1
  24   13   36 1
  25   14   15 ar
  26   14   19 ar
  27   15   16 ar
  28   15   37 1
  29   16   17 ar
  30   16   38 1
  31   17   18 ar
  32   17   21 1
  33   18   19 ar
  34   18   20 1
  35   19   39 1
  36   20   22 1
  37   21   22 1
  38   22   23 1
  39   22   24 1
  40   25   26 am
  41   25   27 2
  42   26   28 1
  43   26   40 1
  44   28   41 1
  45   28   42 1
  46   28   43 1

#	End of record

