#	Name: ASD09740127
#	Creating user name:	WinNT
#	Creation time:	15. 06. 2019 21:22

#	Modifying user name:	WinNT
#	Modification time:	15. 06. 2019 21:22

#	Program:	/corina/corina34_cracker 3.40 0067  02.08.2006

@<TRIPOS>MOLECULE
ASD09740127
  42   45    0    0    0
SMALL
NO_CHARGES


@<TRIPOS>ATOM
   1 N1             0.3405     1.3646     0.0354 N.2     
   2 O2             0.2654     0.1555     0.0915 O.3     
   3 C3             1.5815     1.7354    -0.1473 C.2     
   4 N4             2.3321     0.6160    -0.2068 N.2     
   5 C5             1.4853    -0.3853    -0.0538 C.2     
   6 C6             1.8169    -1.8248    -0.0438 C.ar    
   7 C7             2.0737     3.1315    -0.2671 C.ar    
   8 C8             1.1920     4.2123    -0.1878 C.ar    
   9 C9             1.6913     5.4938    -0.3038 C.ar    
  10 N10            2.9805     5.7040    -0.4874 N.ar    
  11 C11            3.8457     4.7120    -0.5678 C.ar    
  12 C12            3.4313     3.3997    -0.4563 C.ar    
  13 C13            0.8062    -2.7738     0.1295 C.ar    
  14 C14            2.4391    -4.5267    -0.0260 C.ar    
  15 C15            3.4481    -3.5804    -0.2043 C.ar    
  16 C16            3.1402    -2.2384    -0.2133 C.ar    
  17 C17            1.1162    -4.1149     0.1382 C.ar    
  18 C18            2.7717    -5.9717    -0.0169 C.ar    
  19 C19            2.1789    -6.8319    -0.9399 C.ar    
  20 C20            3.6829    -6.4741     0.9108 C.ar    
  21 C21            3.9890    -7.8197     0.9142 C.ar    
  22 C22            3.3939    -8.6695    -0.0009 C.ar    
  23 C23            2.4927    -8.1757    -0.9270 C.ar    
  24 C24           -0.2827     3.9824     0.0208 C.3     
  25 C25            0.0263    -5.1387     0.3255 C.3     
  26 F26           -1.1777    -4.4896     0.6190 F       
  27 F27           -0.1200    -5.8843    -0.8492 F       
  28 F28            0.3650    -5.9926     1.3807 F       
  29 H29            1.0175     6.3357    -0.2438 H       
  30 H30            4.8927     4.9291    -0.7191 H       
  31 H31            4.1453     2.5921    -0.5228 H       
  32 H32           -0.2178    -2.4552     0.2569 H       
  33 H33            4.4713    -3.9004    -0.3350 H       
  34 H34            3.9216    -1.5058    -0.3517 H       
  35 H35            1.4752    -6.4475    -1.6633 H       
  36 H36            4.1485    -5.8115     1.6253 H       
  37 H37            4.6947    -8.2101     1.6325 H       
  38 H38            3.6368    -9.7218     0.0052 H       
  39 H39            2.0309    -8.8438    -1.6389 H       
  40 H40           -0.5002     3.9649     1.0888 H       
  41 H41           -0.8463     4.7869    -0.4516 H       
  42 H42           -0.5682     3.0290    -0.4238 H       
@<TRIPOS>BOND
   1    1    2 1
   2    1    3 2
   3    2    5 1
   4    3    4 1
   5    3    7 1
   6    4    5 2
   7    5    6 1
   8    6   13 ar
   9    6   16 ar
  10    7    8 ar
  11    7   12 ar
  12    8    9 ar
  13    8   24 1
  14    9   10 ar
  15    9   29 1
  16   10   11 ar
  17   11   12 ar
  18   11   30 1
  19   12   31 1
  20   13   17 ar
  21   13   32 1
  22   14   15 ar
  23   14   18 1
  24   14   17 ar
  25   15   16 ar
  26   15   33 1
  27   16   34 1
  28   17   25 1
  29   18   19 ar
  30   18   20 ar
  31   19   23 ar
  32   19   35 1
  33   20   21 ar
  34   20   36 1
  35   21   22 ar
  36   21   37 1
  37   22   23 ar
  38   22   38 1
  39   23   39 1
  40   24   40 1
  41   24   41 1
  42   24   42 1
  43   25   26 1
  44   25   27 1
  45   25   28 1

#	End of record

