#	Name: ASD03091624
#	Creating user name:	WinNT
#	Creation time:	15. 06. 2019 20:31

#	Modifying user name:	WinNT
#	Modification time:	15. 06. 2019 20:31

#	Program:	/corina/corina34_cracker 3.40 0067  02.08.2006

@<TRIPOS>MOLECULE
ASD03091624
  52   55    0    0    0
SMALL
NO_CHARGES


@<TRIPOS>ATOM
   1 Cl1            0.0000     0.0000     0.0000 Cl      
   2 H2             0.0000     1.3700     0.0000 H       
   3 C3            13.6937    12.0171     8.7782 C.ar    
   4 C4            13.7128    10.6100     8.7704 C.ar    
   5 C5            14.9359     9.9493     8.7557 C.ar    
   6 C6            16.1074    10.6747     8.7488 C.ar    
   7 C7            16.0827    12.0628     8.7565 C.ar    
   8 C8            14.8928    12.7339     8.7706 C.ar    
   9 O9            12.4344    10.1853     8.7804 O.3     
  10 C10           11.5808    11.2305     8.7941 C.2     
  11 C11           12.2808    12.3942     8.7995 C.2     
  12 C12           10.1149    11.1251     8.8068 C.2     
  13 O13            9.4328    12.1324     8.8183 O.2     
  14 N14            9.5263     9.9127     8.8056 N.am    
  15 N15            6.8344     8.6536    10.5927 N.3     
  16 C16            7.5573     9.8887    10.2606 C.3     
  17 C17            8.0651     9.8077     8.8182 C.3     
  18 C18            7.6414     8.4608     8.2191 C.3     
  19 C19            6.1116     8.3616     8.2716 C.3     
  20 C20            5.6580     8.4820     9.7292 C.3     
  21 C21            7.7213     7.4848    10.5117 C.3     
  22 C22            8.2344     7.3357     9.0767 C.3     
  23 C23           17.4304     9.9532     8.7332 C.3     
  24 C24           17.8586     9.7198     7.3073 C.2     
  25 C25           19.1568     9.0119     7.0167 C.3     
  26 O26           17.1614    10.1002     6.3976 O.2     
  27 C27           19.2826     8.2902     5.6735 C.3     
  28 C28           20.0474     9.5928     5.9166 C.3     
  29 H29           14.9678     8.8697     8.7499 H       
  30 H30           17.0104    12.6158     8.7509 H       
  31 H31           14.8792    13.8138     8.7769 H       
  32 H32           11.8760    13.3954     8.8104 H       
  33 H33           10.0702     9.1096     8.7964 H       
  34 H34            6.8861    10.7414    10.3625 H       
  35 H35            8.4030    10.0083    10.9378 H       
  36 H36            7.6336    10.6197     8.2329 H       
  37 H37            7.9868     8.3838     7.1881 H       
  38 H38            5.6729     9.1686     7.6847 H       
  39 H39            5.7939     7.4000     7.8685 H       
  40 H40            5.1226     7.5779    10.0193 H       
  41 H41            5.0000     9.3445     9.8352 H       
  42 H42            8.5655     7.6213    11.1875 H       
  43 H43            7.1690     6.5889    10.7954 H       
  44 H44            7.9252     6.3700     8.6767 H       
  45 H45            9.3222     7.4050     9.0687 H       
  46 H46           18.1801    10.5580     9.2434 H       
  47 H47           17.3279     8.9953     9.2432 H       
  48 H48           19.6497     8.5613     7.8782 H       
  49 H49           19.8585     7.3650     5.6512 H       
  50 H50           18.4263     8.3274     5.0000 H       
  51 H51           19.6943    10.4871     5.4030 H       
  52 H52           21.1265     9.5247     6.0542 H       
@<TRIPOS>BOND
   1    1    2 1
   2    3    4 ar
   3    3    8 ar
   4    3   11 1
   5    4    5 ar
   6    4    9 1
   7    5    6 ar
   8    5   29 1
   9    6    7 ar
  10    6   23 1
  11    7    8 ar
  12    7   30 1
  13    8   31 1
  14    9   10 1
  15   10   11 2
  16   10   12 1
  17   11   32 1
  18   12   13 2
  19   12   14 am
  20   14   17 1
  21   14   33 1
  22   15   16 1
  23   15   20 1
  24   15   21 1
  25   16   17 1
  26   16   34 1
  27   16   35 1
  28   17   18 1
  29   17   36 1
  30   18   19 1
  31   18   22 1
  32   18   37 1
  33   19   20 1
  34   19   38 1
  35   19   39 1
  36   20   40 1
  37   20   41 1
  38   21   22 1
  39   21   42 1
  40   21   43 1
  41   22   44 1
  42   22   45 1
  43   23   24 1
  44   23   46 1
  45   23   47 1
  46   24   25 1
  47   24   26 2
  48   25   27 1
  49   25   28 1
  50   25   48 1
  51   27   28 1
  52   27   49 1
  53   27   50 1
  54   28   51 1
  55   28   52 1

#	End of record

