#	Name: ASD01913662
#	Creating user name:	WinNT
#	Creation time:	15. 06. 2019 20:02

#	Modifying user name:	WinNT
#	Modification time:	15. 06. 2019 20:02

#	Program:	/corina/corina34_cracker 3.40 0067  02.08.2006

@<TRIPOS>MOLECULE
ASD01913662
  39   41    0    0    0
SMALL
NO_CHARGES


@<TRIPOS>ATOM
   1 C1            -0.0167     1.3802     0.0096 C.ar    
   2 C2             0.0021    -0.0041     0.0020 C.ar    
   3 C3            -1.1857    -0.7109     0.0095 C.ar    
   4 C4            -2.3920    -0.0361     0.0242 C.ar    
   5 C5            -2.4120     1.3464     0.0318 C.ar    
   6 C6            -1.2257     2.0550     0.0306 C.ar    
   7 C7            -3.7279     2.0806     0.0472 C.3     
   8 O8            -4.1321     2.3054     1.3993 O.3     
   9 C9            -5.3036     2.9589     1.5906 C.ar    
  10 N10           -6.0096     3.3533     0.5422 N.ar    
  11 C11           -7.1534     3.9914     0.6762 C.ar    
  12 C12           -7.6642     4.2762     1.9429 C.ar    
  13 C13           -6.9407     3.8720     3.0748 C.ar    
  14 C14           -5.7503     3.2009     2.8863 C.ar    
  15 C15           -8.9465     4.9927     2.0899 C.2     
  16 N16           -9.6331     5.3768     0.9956 N.am    
  17 O17           -9.3832     5.2362     3.1981 O.2     
  18 F18            1.1437     2.0720     0.0023 F       
  19 C19          -10.9056     6.0878     1.1414 C.3     
  20 C20          -11.4737     6.4058    -0.2432 C.3     
  21 C21          -12.8619     7.0460    -0.3072 C.3     
  22 C22          -11.6194     7.8801    -0.6254 C.3     
  23 H23            0.9445    -0.5315    -0.0101 H       
  24 H24           -1.1713    -1.7907     0.0036 H       
  25 H25           -3.3196    -0.5892     0.0293 H       
  26 H26           -1.2416     3.1349     0.0368 H       
  27 H27           -3.6161     3.0376    -0.4625 H       
  28 H28           -4.4833     1.4831    -0.4632 H       
  29 H29           -7.7013     4.2975    -0.2027 H       
  30 H30           -7.3088     4.0773     4.0692 H       
  31 H31           -5.1672     2.8745     3.7347 H       
  32 H32           -9.2846     5.1825     0.1114 H       
  33 H33          -11.6108     5.4621     1.6885 H       
  34 H34          -10.7426     7.0159     1.6892 H       
  35 H35          -11.2059     5.7047    -1.0336 H       
  36 H36          -13.5072     6.7664    -1.1400 H       
  37 H37          -13.3704     7.2406     0.6371 H       
  38 H38          -11.3104     8.6235     0.1095 H       
  39 H39          -11.4472     8.1492    -1.6675 H       
@<TRIPOS>BOND
   1    1    2 ar
   2    1   18 1
   3    1    6 ar
   4    2    3 ar
   5    2   23 1
   6    3    4 ar
   7    3   24 1
   8    4    5 ar
   9    4   25 1
  10    5    6 ar
  11    5    7 1
  12    6   26 1
  13    7    8 1
  14    7   27 1
  15    7   28 1
  16    8    9 1
  17    9   10 ar
  18    9   14 ar
  19   10   11 ar
  20   11   12 ar
  21   11   29 1
  22   12   13 ar
  23   12   15 1
  24   13   14 ar
  25   13   30 1
  26   14   31 1
  27   15   16 am
  28   15   17 2
  29   16   19 1
  30   16   32 1
  31   19   20 1
  32   19   33 1
  33   19   34 1
  34   20   21 1
  35   20   22 1
  36   20   35 1
  37   21   22 1
  38   21   36 1
  39   21   37 1
  40   22   38 1
  41   22   39 1

#	End of record

