#	Name: ASD00990014
#	Creating user name:	WinNT
#	Creation time:	15. 06. 2019 18:54

#	Modifying user name:	WinNT
#	Modification time:	15. 06. 2019 18:54

#	Program:	/corina/corina34_cracker 3.40 0067  02.08.2006

@<TRIPOS>MOLECULE
ASD00990014
  33   34    0    0    0
SMALL
NO_CHARGES


@<TRIPOS>ATOM
   1 C1            -0.0167     1.3809     0.0096 C.ar    
   2 C2             0.0021    -0.0041     0.0020 C.ar    
   3 C3            -1.1808    -0.7170     0.0095 C.ar    
   4 C4            -2.3932    -0.0453     0.0247 C.ar    
   5 C5            -2.4116     1.3492     0.0323 C.ar    
   6 C6            -1.2211     2.0590     0.0305 C.ar    
   7 Cl7            1.4760     2.2673     0.0001 Cl      
   8 O8            -3.6823    -0.4650     0.0352 O.3     
   9 C9            -4.4939     0.6040     0.0489 C.2     
  10 N10           -3.7532     1.7300     0.0476 N.am    
  11 C11           -4.2639     3.1030     0.0608 C.3     
  12 O12           -5.7092     0.5630     0.0607 O.2     
  13 C13           -4.4248     3.5655     1.4860 C.2     
  14 O14           -4.1419     2.8242     2.3973 O.2     
  15 O15           -4.8825     4.8009     1.7431 O.3     
  16 C16           -5.0121     5.1786     3.1391 C.3     
  17 C17           -3.6436     5.0974     3.8186 C.3     
  18 C18           -5.5440     6.6101     3.2329 C.3     
  19 C19           -5.9852     4.2262     3.8369 C.3     
  20 H20            0.9459    -0.5288    -0.0102 H       
  21 H21           -1.1612    -1.7968     0.0031 H       
  22 H22           -1.2345     3.1389     0.0364 H       
  23 H23           -3.5616     3.7569    -0.4563 H       
  24 H24           -5.2298     3.1362    -0.4432 H       
  25 H25           -2.9503     5.7759     3.3215 H       
  26 H26           -3.7409     5.3809     4.8666 H       
  27 H27           -3.2647     4.0776     3.7518 H       
  28 H28           -6.5189     6.6679     2.7488 H       
  29 H29           -5.6412     6.8936     4.2809 H       
  30 H30           -4.8507     7.2886     2.7358 H       
  31 H31           -5.6063     3.2064     3.7701 H       
  32 H32           -6.0825     4.5097     4.8849 H       
  33 H33           -6.9601     4.2840     3.3528 H       
@<TRIPOS>BOND
   1    1    2 ar
   2    1    7 1
   3    1    6 ar
   4    2    3 ar
   5    2   20 1
   6    3    4 ar
   7    3   21 1
   8    4    5 ar
   9    4    8 1
  10    5    6 ar
  11    5   10 1
  12    6   22 1
  13    8    9 1
  14    9   10 am
  15    9   12 2
  16   10   11 1
  17   11   13 1
  18   11   23 1
  19   11   24 1
  20   13   14 2
  21   13   15 1
  22   15   16 1
  23   16   17 1
  24   16   18 1
  25   16   19 1
  26   17   25 1
  27   17   26 1
  28   17   27 1
  29   18   28 1
  30   18   29 1
  31   18   30 1
  32   19   31 1
  33   19   32 1
  34   19   33 1

#	End of record

