#	Name: ASD01812605
#	Creating user name:	WinNT
#	Creation time:	15. 06. 2019 19:28

#	Modifying user name:	WinNT
#	Modification time:	15. 06. 2019 19:28

#	Program:	/corina/corina34_cracker 3.40 0067  02.08.2006

@<TRIPOS>MOLECULE
ASD01812605
  45   49    0    0    0
SMALL
NO_CHARGES


@<TRIPOS>ATOM
   1 C1            -0.0184     1.5028     0.0103 C.3     
   2 C2             0.0021    -0.0041     0.0020 C.2     
   3 N3             0.0079    -0.7567    -1.0597 N.2     
   4 N4             0.0278    -2.1056    -0.6847 N.pl3   
   5 H5             0.0359    -2.8646    -1.2885 H       
   6 C6             0.0343    -2.1664     0.6862 C.ar    
   7 C7             0.0527    -3.2128     1.6008 C.ar    
   8 C8             0.0549    -2.9357     2.9606 C.ar    
   9 C9             0.0387    -1.6104     3.4121 C.ar    
  10 C10            0.0206    -0.5770     2.5256 C.ar    
  11 C11            0.0242    -0.8353     1.1478 C.ar    
  12 C12            0.0741    -4.0491     3.9407 C.ar    
  13 C13            0.0956    -5.3699     3.4974 C.ar    
  14 C14            0.1138    -6.4044     4.4144 C.ar    
  15 F15            0.1347    -7.6854     3.9857 F       
  16 C16            0.1112    -6.1294     5.7719 C.ar    
  17 C17            0.1317    -7.2605     6.7675 C.3     
  18 N18            1.5193    -7.6038     7.0881 N.am    
  19 C19            2.3426    -8.5877     6.3763 C.3     
  20 C20            3.6862    -8.5934     7.0645 C.ar    
  21 N21            4.7958    -9.2671     6.8594 N.ar    
  22 C22            5.8645    -9.0916     7.6148 C.ar    
  23 C23            5.8595    -8.1859     8.6601 C.ar    
  24 C24            4.7142    -7.4516     8.9169 C.ar    
  25 C25            3.5989    -7.6594     8.0992 C.ar    
  26 C26            2.2503    -7.0650     8.0796 C.2     
  27 O27            1.8552    -6.2122     8.8503 O.2     
  28 C28            0.0903    -4.8180     6.2171 C.ar    
  29 F29            0.0887    -4.5555     7.5423 F       
  30 C30            0.0764    -3.7771     5.3073 C.ar    
  31 H31            1.0042     1.8801     0.0026 H       
  32 H32           -0.5455     1.8639    -0.8728 H       
  33 H33           -0.5286     1.8543     0.9071 H       
  34 H34            0.0649    -4.2359     1.2551 H       
  35 H35            0.0402    -1.4060     4.4726 H       
  36 H36            0.0082     0.4417     2.8840 H       
  37 H37            0.0977    -5.5853     2.4391 H       
  38 H38           -0.3860    -6.9539     7.6764 H       
  39 H39           -0.3683    -8.1297     6.3403 H       
  40 H40            1.8851    -9.5749     6.4402 H       
  41 H41            2.4577    -8.2946     5.3328 H       
  42 H42            6.7572    -9.6652     7.4134 H       
  43 H43            6.7405    -8.0530     9.2705 H       
  44 H44            4.6828    -6.7379     9.7269 H       
  45 H45            0.0639    -2.7547     5.6553 H       
@<TRIPOS>BOND
   1    1    2 1
   2    1   31 1
   3    1   32 1
   4    1   33 1
   5    2   11 1
   6    2    3 2
   7    3    4 1
   8    4    5 1
   9    4    6 1
  10    6   11 ar
  11    6    7 ar
  12    7    8 ar
  13    7   34 1
  14    8    9 ar
  15    8   12 1
  16    9   10 ar
  17    9   35 1
  18   10   11 ar
  19   10   36 1
  20   12   30 ar
  21   12   13 ar
  22   13   14 ar
  23   13   37 1
  24   14   15 1
  25   14   16 ar
  26   16   17 1
  27   16   28 ar
  28   17   18 1
  29   17   38 1
  30   17   39 1
  31   18   26 am
  32   18   19 1
  33   19   20 1
  34   19   40 1
  35   19   41 1
  36   20   25 ar
  37   20   21 ar
  38   21   22 ar
  39   22   23 ar
  40   22   42 1
  41   23   24 ar
  42   23   43 1
  43   24   25 ar
  44   24   44 1
  45   25   26 1
  46   26   27 2
  47   28   29 1
  48   28   30 ar
  49   30   45 1

#	End of record

