#	Name: ASD01882791
#	Creating user name:	WinNT
#	Creation time:	15. 06. 2019 19:45

#	Modifying user name:	WinNT
#	Modification time:	15. 06. 2019 19:45

#	Program:	/corina/corina34_cracker 3.40 0067  02.08.2006

@<TRIPOS>MOLECULE
ASD01882791
  30   31    0    0    0
SMALL
NO_CHARGES


@<TRIPOS>ATOM
   1 N1            -0.0165     1.3692     0.0096 N.pl3   
   2 O2             1.1412    -0.7243    -0.0127 O.3     
   3 C3             0.0021    -0.0041     0.0020 C.2     
   4 N4            -1.0753    -0.7270     0.0089 N.2     
   5 C5            -0.6823    -2.1496     0.0076 C.3     
   6 C6             0.8153    -2.0697     0.3922 C.3     
   7 C7             1.6390    -3.0940    -0.3909 C.3     
   8 O8             3.0178    -2.9666    -0.0377 O.3     
   9 C9             3.8915    -3.8096    -0.6484 C.ar    
  10 C10            5.2444    -3.7405    -0.3523 C.ar    
  11 C11            6.1330    -4.6016    -0.9768 C.ar    
  12 C12            5.6670    -5.5306    -1.8967 C.ar    
  13 C13            4.3186    -5.5975    -2.1900 C.ar    
  14 C14            3.4299    -4.7439    -1.5644 C.ar    
  15 O15            7.4596    -4.5360    -0.6891 O.3     
  16 C16            8.3173    -5.4538    -1.3702 C.3     
  17 F17            8.2213    -5.2455    -2.7502 F       
  18 F18            9.6388    -5.2502    -0.9586 F       
  19 F19            7.9316    -6.7643    -1.0684 F       
  20 H20            0.8168     1.8655     0.0043 H       
  21 H21           -0.8631     1.8427     0.0162 H       
  22 H22           -1.2463    -2.7101     0.7532 H       
  23 H23           -0.8071    -2.5872    -0.9829 H       
  24 H24            0.9511    -2.1991     1.4659 H       
  25 H25            1.2935    -4.0992    -0.1495 H       
  26 H26            1.5198    -2.9156    -1.4596 H       
  27 H27            5.6051    -3.0166     0.3635 H       
  28 H28            6.3591    -6.2015    -2.3838 H       
  29 H29            3.9579    -6.3211    -2.9060 H       
  30 H30            2.3756    -4.8013    -1.7918 H       
@<TRIPOS>BOND
   1    1    3 1
   2    1   20 1
   3    1   21 1
   4    2    3 1
   5    2    6 1
   6    3    4 2
   7    4    5 1
   8    5    6 1
   9    5   22 1
  10    5   23 1
  11    6    7 1
  12    6   24 1
  13    7    8 1
  14    7   25 1
  15    7   26 1
  16    8    9 1
  17    9   10 ar
  18    9   14 ar
  19   10   11 ar
  20   10   27 1
  21   11   12 ar
  22   11   15 1
  23   12   13 ar
  24   12   28 1
  25   13   14 ar
  26   13   29 1
  27   14   30 1
  28   15   16 1
  29   16   17 1
  30   16   18 1
  31   16   19 1

#	End of record

