#	Name: ASD01140375
#	Creating user name:	WinNT
#	Creation time:	15. 06. 2019 19:00

#	Modifying user name:	WinNT
#	Modification time:	15. 06. 2019 19:00

#	Program:	/corina/corina34_cracker 3.40 0067  02.08.2006

@<TRIPOS>MOLECULE
ASD01140375
  43   46    0    0    0
SMALL
NO_CHARGES


@<TRIPOS>ATOM
   1 S1            -0.0212     1.7086     0.0114 S.3     
   2 C2             0.0021    -0.0041     0.0020 C.2     
   3 N3             1.2371    -0.4070    -0.0119 N.2     
   4 N4             2.1424     0.4731    -0.0159 N.2     
   5 C5             1.7427     1.7145    -0.0054 C.2     
   6 C6             2.6113     2.9109    -0.0077 C.ar    
   7 C7             3.9998     2.7690    -0.0216 C.ar    
   8 C8             4.2381     5.1518    -0.0119 C.ar    
   9 C9             2.0465     4.1869    -0.0017 C.ar    
  10 C10            4.8045     3.8893    -0.0237 C.ar    
  11 C11            2.8627     5.2994    -0.0038 C.ar    
  12 C12            6.3038     3.7380    -0.0382 C.3     
  13 O13           -1.0894    -0.8075     0.0085 O.3     
  14 C14           -1.8177    -4.4464     0.5828 C.3     
  15 C15           -2.0013    -2.9272     0.7283 C.3     
  16 C16           -0.8572    -2.2175    -0.0013 C.3     
  17 C17           -0.7822    -2.7112    -1.4490 C.3     
  18 C18           -0.6812    -4.2450    -1.4469 C.3     
  19 C19            0.4053    -4.6460    -0.4228 C.3     
  20 C20           -0.3456    -4.7791     0.9184 C.3     
  21 N21           -1.9447    -4.7691    -0.8634 N.3     
  22 C22           -2.0589    -6.2189    -1.0712 C.3     
  23 H23            4.4430     1.7842    -0.0305 H       
  24 H24            4.8726     6.0258    -0.0135 H       
  25 H25            0.9728     4.3034     0.0043 H       
  26 H26            2.4269     6.2875     0.0054 H       
  27 H27            6.6558     3.7065    -1.0694 H       
  28 H28            6.7595     4.5845     0.4755 H       
  29 H29            6.5807     2.8136     0.4686 H       
  30 H30           -2.5183    -5.0058     1.2026 H       
  31 H31           -2.9538    -2.6309     0.2892 H       
  32 H32           -1.9842    -2.6570     1.7841 H       
  33 H33            0.0842    -2.4334     0.5038 H       
  34 H34           -1.6799    -2.4052    -1.9861 H       
  35 H35            0.0975    -2.2881    -1.9339 H       
  36 H36           -0.4784    -4.6444    -2.4406 H       
  37 H37            0.8561    -5.5986    -0.7013 H       
  38 H38            1.1678    -3.8700    -0.3552 H       
  39 H39            0.0476    -4.0686     1.6455 H       
  40 H40           -0.2642    -5.7971     1.2994 H       
  41 H41           -2.9411    -6.5921    -0.5510 H       
  42 H42           -2.1505    -6.4270    -2.1372 H       
  43 H43           -1.1699    -6.7132    -0.6795 H       
@<TRIPOS>BOND
   1    1    2 1
   2    1    5 1
   3    2    3 2
   4    2   13 1
   5    3    4 1
   6    4    5 2
   7    5    6 1
   8    6    7 ar
   9    6    9 ar
  10    7   10 ar
  11    7   23 1
  12    8   10 ar
  13    8   11 ar
  14    8   24 1
  15    9   11 ar
  16    9   25 1
  17   10   12 1
  18   11   26 1
  19   12   27 1
  20   12   28 1
  21   12   29 1
  22   13   16 1
  23   14   15 1
  24   14   20 1
  25   14   21 1
  26   14   30 1
  27   15   16 1
  28   15   31 1
  29   15   32 1
  30   16   17 1
  31   16   33 1
  32   17   18 1
  33   17   34 1
  34   17   35 1
  35   18   19 1
  36   18   21 1
  37   18   36 1
  38   19   20 1
  39   19   37 1
  40   19   38 1
  41   20   39 1
  42   20   40 1
  43   21   22 1
  44   22   41 1
  45   22   42 1
  46   22   43 1

#	End of record

