#	Name: ASD03091210
#	Creating user name:	WinNT
#	Creation time:	15. 06. 2019 20:30

#	Modifying user name:	WinNT
#	Modification time:	15. 06. 2019 20:30

#	Program:	/corina/corina34_cracker 3.40 0067  02.08.2006

@<TRIPOS>MOLECULE
ASD03091210
  58   62    0    0    0
SMALL
NO_CHARGES


@<TRIPOS>ATOM
   1 N1            -0.0729     1.3696    -0.0062 N.2     
   2 C2            -0.1134     0.0627     0.0041 C.2     
   3 N3             1.0099    -0.7194     0.0216 N.am    
   4 C4             2.2389    -0.1525     0.0286 C.2     
   5 C5             2.3086     1.3163     0.0167 C.ar    
   6 C6             3.5260     1.9933     0.0222 C.ar    
   7 C7             3.5329     3.3779     0.0100 C.ar    
   8 C8             2.3333     4.0899    -0.0071 C.ar    
   9 C9             1.1327     3.4403    -0.0126 C.ar    
  10 C10            1.0959     2.0425    -0.0006 C.ar    
  11 O11            3.2483    -0.8328     0.0444 O.2     
  12 C12            0.8810    -2.1787     0.0332 C.3     
  13 C13            0.7008    -2.6862    -1.3989 C.3     
  14 O14            1.8850    -2.4173    -2.1521 O.3     
  15 C15            1.8211    -2.8541    -3.5112 C.3     
  16 C16           -1.4340    -0.6012    -0.0029 C.ar    
  17 C17           -1.7579    -1.5279     0.9895 C.ar    
  18 C18           -2.9931    -2.1443     0.9769 C.ar    
  19 C19           -3.9092    -1.8446    -0.0176 C.ar    
  20 C20           -3.5933    -0.9275    -1.0036 C.ar    
  21 C21           -2.3645    -0.2999    -0.9986 C.ar    
  22 Cl22          -3.3985    -3.2976     2.2095 Cl      
  23 N23            7.5211     4.7018    -0.8105 N.3     
  24 C24            7.2009     3.8597     0.3522 C.3     
  25 C25            5.8785     3.1379     0.1449 C.3     
  26 N26            4.7490     4.0664     0.0154 N.3     
  27 C27            4.8925     4.8914    -1.1923 C.3     
  28 C28            5.5683     6.2122    -0.8557 C.3     
  29 C29            7.0521     6.0758    -0.5801 C.3     
  30 C30            7.1313     4.1828    -2.1039 C.3     
  31 C31            5.6218     4.0926    -2.2570 C.3     
  32 H32            4.4555     1.4435     0.0362 H       
  33 H33            2.3548     5.1697    -0.0157 H       
  34 H34            0.2124     4.0053    -0.0259 H       
  35 H35            1.7798    -2.6194     0.4645 H       
  36 H36            0.0147    -2.4622     0.6309 H       
  37 H37            0.5163    -3.7604    -1.3831 H       
  38 H38           -0.1464    -2.1788    -1.8603 H       
  39 H39            2.7576    -2.6136    -4.0145 H       
  40 H40            1.6598    -3.9317    -3.5393 H       
  41 H41            0.9972    -2.3501    -4.0164 H       
  42 H42           -1.0438    -1.7623     1.7651 H       
  43 H43           -4.8743    -2.3294    -0.0234 H       
  44 H44           -4.3119    -0.6988    -1.7767 H       
  45 H45           -2.1214     0.4197    -1.7664 H       
  46 H46            7.9932     3.1243     0.4920 H       
  47 H47            7.1325     4.4862     1.2415 H       
  48 H48            5.9441     2.5336    -0.7598 H       
  49 H49            5.6986     2.4796     0.9948 H       
  50 H50            3.8944     5.1090    -1.5724 H       
  51 H51            5.4296     6.8986    -1.6910 H       
  52 H52            5.0868     6.6365     0.0254 H       
  53 H53            7.2482     6.3497     0.4565 H       
  54 H54            7.5995     6.7532    -1.2355 H       
  55 H55            7.5269     4.8367    -2.8811 H       
  56 H56            7.5594     3.1883    -2.2294 H       
  57 H57            5.3202     3.0476    -2.1847 H       
  58 H58            5.3420     4.4733    -3.2393 H       
@<TRIPOS>BOND
   1    1    2 2
   2    1   10 1
   3    2    3 1
   4    2   16 1
   5    3    4 am
   6    3   12 1
   7    4    5 1
   8    4   11 2
   9    5    6 ar
  10    5   10 ar
  11    6    7 ar
  12    6   32 1
  13    7    8 ar
  14    7   26 1
  15    8    9 ar
  16    8   33 1
  17    9   10 ar
  18    9   34 1
  19   12   13 1
  20   12   35 1
  21   12   36 1
  22   13   14 1
  23   13   37 1
  24   13   38 1
  25   14   15 1
  26   15   39 1
  27   15   40 1
  28   15   41 1
  29   16   17 ar
  30   16   21 ar
  31   17   18 ar
  32   17   42 1
  33   18   19 ar
  34   18   22 1
  35   19   20 ar
  36   19   43 1
  37   20   21 ar
  38   20   44 1
  39   21   45 1
  40   23   24 1
  41   23   29 1
  42   23   30 1
  43   24   25 1
  44   24   46 1
  45   24   47 1
  46   25   26 1
  47   25   48 1
  48   25   49 1
  49   26   27 1
  50   27   28 1
  51   27   31 1
  52   27   50 1
  53   28   29 1
  54   28   51 1
  55   28   52 1
  56   29   53 1
  57   29   54 1
  58   30   31 1
  59   30   55 1
  60   30   56 1
  61   31   57 1
  62   31   58 1

#	End of record

