#	Name: ASD01150691
#	Creating user name:	WinNT
#	Creation time:	15. 06. 2019 19:04

#	Modifying user name:	WinNT
#	Modification time:	15. 06. 2019 19:04

#	Program:	/corina/corina34_cracker 3.40 0067  02.08.2006

@<TRIPOS>MOLECULE
ASD01150691
  32   34    0    0    0
SMALL
NO_CHARGES


@<TRIPOS>ATOM
   1 C1            -0.0328     1.5603    -0.0169 C.2     
   2 C2            -0.6337     1.2693    -1.3679 C.3     
   3 C3             3.6570     3.5895     0.2668 C.ar    
   4 C4             2.4961     4.3653     0.1694 C.ar    
   5 C5             1.2450     3.7026     0.0728 C.ar    
   6 C6             1.2324     2.2947     0.0798 C.ar    
   7 C7             2.4496     1.6067     0.1812 C.ar    
   8 N8             3.5839     2.2540     0.2684 N.ar    
   9 C9             2.7883     5.7870     0.1847 C.2     
  10 C10            4.0679     6.0886     0.2855 C.2     
  11 S11            5.0603     4.6471     0.3810 S.3     
  12 C12           -0.0139     4.4714    -0.0319 C.ar    
  13 C13           -0.2589     5.2658    -1.1533 C.ar    
  14 C14           -1.4356     5.9801    -1.2449 C.ar    
  15 C15           -2.3716     5.9106    -0.2283 C.ar    
  16 C16           -2.1348     5.1255     0.8861 C.ar    
  17 C17           -0.9650     4.4013     0.9874 C.ar    
  18 C18            2.4523     0.0997     0.1900 C.3     
  19 F19           -1.9383     1.7722    -1.4162 F       
  20 F20            0.1382     1.8790    -2.3628 F       
  21 F21           -0.6588    -0.1134    -1.5791 F       
  22 O22           -0.5985     1.1913     0.9909 O.2     
  23 H23            2.0169     6.5400     0.1183 H       
  24 H24            4.4552     7.0964     0.3103 H       
  25 H25            0.4712     5.3214    -1.9471 H       
  26 H26           -1.6264     6.5951    -2.1120 H       
  27 H27           -3.2910     6.4721    -0.3048 H       
  28 H28           -2.8693     5.0759     1.6763 H       
  29 H29           -0.7833     3.7853     1.8557 H       
  30 H30            2.4361    -0.2696    -0.8354 H       
  31 H31            3.3512    -0.2592     0.6913 H       
  32 H32            1.5714    -0.2621     0.7204 H       
@<TRIPOS>BOND
   1    1    2 1
   2    1    6 1
   3    1   22 2
   4    2   19 1
   5    2   20 1
   6    2   21 1
   7    3    4 ar
   8    3    8 ar
   9    3   11 1
  10    4    5 ar
  11    4    9 1
  12    5    6 ar
  13    5   12 1
  14    6    7 ar
  15    7    8 ar
  16    7   18 1
  17    9   10 2
  18    9   23 1
  19   10   11 1
  20   10   24 1
  21   12   13 ar
  22   12   17 ar
  23   13   14 ar
  24   13   25 1
  25   14   15 ar
  26   14   26 1
  27   15   16 ar
  28   15   27 1
  29   16   17 ar
  30   16   28 1
  31   17   29 1
  32   18   30 1
  33   18   31 1
  34   18   32 1

#	End of record

