#	Name: ASD05430194
#	Creating user name:	WinNT
#	Creation time:	15. 06. 2019 20:59

#	Modifying user name:	WinNT
#	Modification time:	15. 06. 2019 20:59

#	Program:	/corina/corina34_cracker 3.40 0067  02.08.2006

@<TRIPOS>MOLECULE
ASD05430194
  65   70    0    0    0
SMALL
NO_CHARGES


@<TRIPOS>ATOM
   1 C1            -0.0168     1.3886     0.0097 C.ar    
   2 C2             0.0021    -0.0041     0.0020 C.ar    
   3 C3             1.2148    -0.6775    -0.0132 C.ar    
   4 C4             2.3995     0.0335    -0.0207 C.ar    
   5 C5             2.3802     1.4163    -0.0126 C.ar    
   6 C6             1.1760     2.0943     0.0021 C.ar    
   7 C7             5.4791     3.1270    -1.4796 C.3     
   8 C8             4.1008     2.4547    -1.4654 C.3     
   9 C9             3.6759     2.1860    -0.0203 C.3     
  10 C10            5.7652     3.6579    -2.8875 C.3     
  11 C11            4.8149     4.7638    -3.3661 C.3     
  12 N12            3.4483     4.3451    -3.0526 N.pl3   
  13 C13            3.1018     3.3811    -2.1244 C.2     
  14 N14            1.8340     3.4061    -1.9051 N.2     
  15 C15            1.9423     4.1646    -4.9735 C.ar    
  16 C16            0.6511     4.0528    -5.4545 C.ar    
  17 N17           -1.2021    -0.7239     0.0101 N.pl3   
  18 C18           -1.3423    -2.0635     0.0043 C.2     
  19 N19           -2.5015    -0.1912     0.0320 N.2     
  20 C20           -3.3262    -1.2061     0.0323 C.2     
  21 N21           -2.6221    -2.3371     0.0155 N.2     
  22 C22           -4.8301    -1.1116     0.0529 C.3     
  23 C23            0.4179     3.4497    -6.6759 C.ar    
  24 C24            1.4782     2.9573    -7.4178 C.ar    
  25 C25            2.7710     3.0697    -6.9350 C.ar    
  26 C26            3.0017     3.6733    -5.7134 C.ar    
  27 F27            1.2514     2.3671    -8.6118 F       
  28 C28           -1.1447     3.4817     0.0264 C.3     
  29 O29           -1.2022     2.0539     0.0189 O.3     
  30 C30            2.1958     4.8280    -3.6443 C.3     
  31 O31            1.2086     4.4222    -2.6736 O.3     
  32 C32            2.2174     6.3507    -3.7919 C.3     
  33 C33           -2.5654     4.0493     0.0362 C.3     
  34 C34            7.2218     3.7285    -3.3415 C.3     
  35 C35            6.2858     2.6703    -3.9302 C.3     
  36 H36            1.2329    -1.7573    -0.0188 H       
  37 H37            3.3430    -0.4920    -0.0325 H       
  38 H38            1.1644     3.1743     0.0087 H       
  39 H39            5.4883     3.9540    -0.7697 H       
  40 H40            6.2421     2.3995    -1.2027 H       
  41 H41            4.1474     1.5138    -2.0137 H       
  42 H42            3.5386     3.1337     0.5002 H       
  43 H43            4.4475     1.6034     0.4830 H       
  44 H44            5.0433     5.6959    -2.8493 H       
  45 H45            4.9212     4.9018    -4.4421 H       
  46 H46           -0.1758     4.4367    -4.8755 H       
  47 H47           -0.5392    -2.7854    -0.0075 H       
  48 H48           -5.2061    -1.0783    -0.9697 H       
  49 H49           -5.2419    -1.9824     0.5632 H       
  50 H50           -5.1301    -0.2060     0.5800 H       
  51 H51           -0.5909     3.3622    -7.0513 H       
  52 H52            3.5988     2.6860    -7.5129 H       
  53 H53            4.0100     3.7611    -5.3366 H       
  54 H54           -0.6124     3.8193     0.9157 H       
  55 H55           -0.6208     3.8289    -0.8642 H       
  56 H56            3.0463     6.6415    -4.4372 H       
  57 H57            1.2787     6.6864    -4.2326 H       
  58 H58            2.3426     6.8091    -2.8109 H       
  59 H59           -2.5216     5.1384     0.0419 H       
  60 H60           -3.0977     3.7118    -0.8531 H       
  61 H61           -3.0892     3.7021     0.9268 H       
  62 H62            7.5089     4.5604    -3.9847 H       
  63 H63            7.9847     3.3914    -2.6398 H       
  64 H64            6.4330     1.6371    -3.6156 H       
  65 H65            5.9571     2.8062    -4.9605 H       
@<TRIPOS>BOND
   1    1    2 ar
   2    1    6 ar
   3    1   29 1
   4    2    3 ar
   5    2   17 1
   6    3    4 ar
   7    3   36 1
   8    4    5 ar
   9    4   37 1
  10    5    6 ar
  11    5    9 1
  12    6   38 1
  13    7    8 1
  14    7   10 1
  15    7   39 1
  16    7   40 1
  17    8    9 1
  18    8   13 1
  19    8   41 1
  20    9   42 1
  21    9   43 1
  22   10   11 1
  23   10   34 1
  24   10   35 1
  25   11   12 1
  26   11   44 1
  27   11   45 1
  28   12   13 1
  29   12   30 1
  30   13   14 2
  31   14   31 1
  32   15   16 ar
  33   15   26 ar
  34   15   30 1
  35   16   23 ar
  36   16   46 1
  37   17   18 1
  38   17   19 1
  39   18   21 2
  40   18   47 1
  41   19   20 2
  42   20   21 1
  43   20   22 1
  44   22   48 1
  45   22   49 1
  46   22   50 1
  47   23   24 ar
  48   23   51 1
  49   24   25 ar
  50   24   27 1
  51   25   26 ar
  52   25   52 1
  53   26   53 1
  54   28   29 1
  55   28   33 1
  56   28   54 1
  57   28   55 1
  58   30   31 1
  59   30   32 1
  60   32   56 1
  61   32   57 1
  62   32   58 1
  63   33   59 1
  64   33   60 1
  65   33   61 1
  66   34   35 1
  67   34   62 1
  68   34   63 1
  69   35   64 1
  70   35   65 1

#	End of record

