#	Name: ASD01140097
#	Creating user name:	WinNT
#	Creation time:	15. 06. 2019 18:59

#	Modifying user name:	WinNT
#	Modification time:	15. 06. 2019 18:59

#	Program:	/corina/corina34_cracker 3.40 0067  02.08.2006

@<TRIPOS>MOLECULE
ASD01140097
  36   39    0    0    0
SMALL
NO_CHARGES


@<TRIPOS>ATOM
   1 C1            -0.0924     1.3637     0.1298 C.ar    
   2 C2            -0.1232    -0.0316     0.1147 C.ar    
   3 N3            -1.3187    -0.7416    -0.0239 N.pl3   
   4 C4            -2.3809    -0.3653    -0.7958 C.2     
   5 C5            -2.4819     0.9229    -1.5715 C.3     
   6 N6            -2.3588     2.0293    -0.6155 N.2     
   7 C7            -1.3010     2.1945     0.0998 C.2     
   8 C8            -1.6413    -1.9284     0.5488 C.2     
   9 N9            -2.8267    -2.2807     0.1259 N.2     
  10 C10           -3.3027    -1.3368    -0.7034 C.2     
  11 C11           -1.3051     3.3672     1.0034 C.ar    
  12 C12           -1.2830     3.1859     2.3888 C.ar    
  13 C13           -1.2870     4.2863     3.2259 C.ar    
  14 C14           -1.3128     5.5623     2.6940 C.ar    
  15 C15           -1.3351     5.7470     1.3227 C.ar    
  16 C16           -1.3251     4.6582     0.4756 C.ar    
  17 F17           -1.2583     1.9392     2.9087 F       
  18 C18           -0.7797    -2.7075     1.5088 C.3     
  19 C19            1.1493     2.0125     0.2162 C.ar    
  20 C20            2.3140     1.2846     0.3086 C.ar    
  21 C21            2.2721    -0.1006     0.3174 C.ar    
  22 C22            1.0612    -0.7536     0.2216 C.ar    
  23 Cl23           3.8405     2.1046     0.4139 Cl      
  24 H24           -1.6772     0.9768    -2.3048 H       
  25 H25           -3.4467     0.9759    -2.0759 H       
  26 H26           -4.2581    -1.3561    -1.2066 H       
  27 H27           -1.2704     4.1489     4.2970 H       
  28 H28           -1.3158     6.4189     3.3518 H       
  29 H29           -1.3555     6.7466     0.9144 H       
  30 H30           -1.3426     4.8050    -0.5942 H       
  31 H31           -0.9236    -2.3246     2.5191 H       
  32 H32           -1.0599    -3.7604     1.4760 H       
  33 H33            0.2675    -2.6012     1.2257 H       
  34 H34            1.1912     3.0917     0.2098 H       
  35 H35            3.1871    -0.6684     0.3999 H       
  36 H36            1.0321    -1.8332     0.2293 H       
@<TRIPOS>BOND
   1    1    2 ar
   2    1   19 ar
   3    1    7 1
   4    2    3 1
   5    2   22 ar
   6    3    4 1
   7    3    8 1
   8    4    5 1
   9    4   10 2
  10    5    6 1
  11    5   24 1
  12    5   25 1
  13    6    7 2
  14    7   11 1
  15    8    9 2
  16    8   18 1
  17    9   10 1
  18   10   26 1
  19   11   12 ar
  20   11   16 ar
  21   12   13 ar
  22   12   17 1
  23   13   14 ar
  24   13   27 1
  25   14   15 ar
  26   14   28 1
  27   15   16 ar
  28   15   29 1
  29   16   30 1
  30   18   31 1
  31   18   32 1
  32   18   33 1
  33   19   20 ar
  34   19   34 1
  35   20   21 ar
  36   20   23 1
  37   21   22 ar
  38   21   35 1
  39   22   36 1

#	End of record

