#	Name: ASD03240566
#	Creating user name:	WinNT
#	Creation time:	15. 06. 2019 20:35

#	Modifying user name:	WinNT
#	Modification time:	15. 06. 2019 20:35

#	Program:	/corina/corina34_cracker 3.40 0067  02.08.2006

@<TRIPOS>MOLECULE
ASD03240566
  55   60    0    0    0
SMALL
NO_CHARGES


@<TRIPOS>ATOM
   1 C1            -0.0166     1.3756     0.0096 C.ar    
   2 C2             0.0021    -0.0041     0.0020 C.ar    
   3 N3             1.1420    -0.6683    -0.0058 N.ar    
   4 C4             2.3145    -0.0482    -0.0059 C.ar    
   5 C5             2.3702     1.3441    -0.0124 C.ar    
   6 C6             1.1859     2.0699     0.0019 C.ar    
   7 N7             3.4813    -0.8061     0.0216 N.pl3   
   8 C8             4.3576    -0.7218     1.0995 C.ar    
   9 C9             4.9952     0.4850     1.4050 C.ar    
  10 C10            4.7663     1.6813     0.5640 C.2     
  11 N11            3.5934     2.0280    -0.0513 N.pl3   
  12 C12            4.6016    -1.8429     1.8822 C.ar    
  13 C13            5.4607    -1.7598     2.9609 C.ar    
  14 C14            6.0832    -0.5628     3.2710 C.ar    
  15 C15            5.8555     0.5591     2.5000 C.ar    
  16 N16            5.6795     2.5870     0.2914 N.2     
  17 C17            5.1487     3.5390    -0.5024 C.2     
  18 C18            3.8161     3.1972    -0.7332 C.2     
  19 C19            2.8407     3.9446    -1.5492 C.ar    
  20 C20            2.7386     5.3326    -1.4251 C.ar    
  21 C21            2.0182     3.2685    -2.4543 C.ar    
  22 C22            1.1085     3.9739    -3.2139 C.ar    
  23 C23            1.0094     5.3478    -3.0817 C.ar    
  24 C24            1.8243     6.0247    -2.1913 C.ar    
  25 C25            5.8426     4.7139    -1.0257 C.2     
  26 C26            0.0135     6.1114    -3.9161 C.3     
  27 N27           -1.0641     5.2608    -4.4387 N.3     
  28 C28           -0.4895     7.4017    -3.2475 C.3     
  29 C29           -0.4058     8.0599    -4.6348 C.3     
  30 C30            0.6630     7.0081    -4.9834 C.3     
  31 C31            7.2923     4.9463    -0.6860 C.3     
  32 O32            5.2511     5.5027    -1.7342 O.2     
  33 H33           -0.9556     1.9093     0.0170 H       
  34 H34           -0.9306    -0.5485     0.0029 H       
  35 H35            1.2000     3.1498     0.0065 H       
  36 H36            3.6859    -1.3995    -0.7180 H       
  37 H37            4.1191    -2.7802     1.6476 H       
  38 H38            5.6476    -2.6343     3.5664 H       
  39 H39            6.7491    -0.5066     4.1194 H       
  40 H40            6.3425     1.4917     2.7438 H       
  41 H41            3.3739     5.8622    -0.7305 H       
  42 H42            2.0950     2.1964    -2.5589 H       
  43 H43            0.4722     3.4527    -3.9138 H       
  44 H44            1.7414     7.0971    -2.0934 H       
  45 H45           -0.6899     4.4394    -4.8898 H       
  46 H46           -1.7122     5.0083    -3.7077 H       
  47 H47           -1.5058     7.3256    -2.8609 H       
  48 H48            0.2098     7.8194    -2.5232 H       
  49 H49           -1.3200     7.9621    -5.2204 H       
  50 H50           -0.0240     9.0806    -4.6116 H       
  51 H51            1.6779     7.3176    -4.7339 H       
  52 H52            0.5760     6.6164    -5.9968 H       
  53 H53            7.6491     4.1399    -0.0454 H       
  54 H54            7.8811     4.9696    -1.6030 H       
  55 H55            7.3951     5.8976    -0.1639 H       
@<TRIPOS>BOND
   1    1    2 ar
   2    1    6 ar
   3    1   33 1
   4    2    3 ar
   5    2   34 1
   6    3    4 ar
   7    4    5 ar
   8    4    7 1
   9    5    6 ar
  10    5   11 1
  11    6   35 1
  12    7    8 1
  13    7   36 1
  14    8    9 ar
  15    8   12 ar
  16    9   10 1
  17    9   15 ar
  18   10   11 1
  19   10   16 2
  20   11   18 1
  21   12   13 ar
  22   12   37 1
  23   13   14 ar
  24   13   38 1
  25   14   15 ar
  26   14   39 1
  27   15   40 1
  28   16   17 1
  29   17   18 2
  30   17   25 1
  31   18   19 1
  32   19   20 ar
  33   19   21 ar
  34   20   24 ar
  35   20   41 1
  36   21   22 ar
  37   21   42 1
  38   22   23 ar
  39   22   43 1
  40   23   24 ar
  41   23   26 1
  42   24   44 1
  43   25   31 1
  44   25   32 2
  45   26   27 1
  46   26   28 1
  47   26   30 1
  48   27   45 1
  49   27   46 1
  50   28   29 1
  51   28   47 1
  52   28   48 1
  53   29   30 1
  54   29   49 1
  55   29   50 1
  56   30   51 1
  57   30   52 1
  58   31   53 1
  59   31   54 1
  60   31   55 1

#	End of record

