#	Name: ASD01918166
#	Creating user name:	WinNT
#	Creation time:	15. 06. 2019 20:10

#	Modifying user name:	WinNT
#	Modification time:	15. 06. 2019 20:10

#	Program:	/corina/corina34_cracker 3.40 0067  02.08.2006

@<TRIPOS>MOLECULE
ASD01918166
  41   44    0    0    0
SMALL
NO_CHARGES


@<TRIPOS>ATOM
   1 C1             0.0107     1.3805    -0.2849 C.ar    
   2 C2             0.0304    -0.0009    -0.3027 C.ar    
   3 C3             1.2160    -0.6822    -0.0776 C.ar    
   4 C4             2.3862     0.0147     0.1661 C.ar    
   5 C5             2.3807     1.3935     0.1871 C.ar    
   6 C6             1.1894     2.0887    -0.0394 C.ar    
   7 C7             1.1774     3.5205    -0.0198 C.1     
   8 C8             1.1675     4.6944    -0.0037 C.1     
   9 C9             1.1555     6.1262     0.0159 C.ar    
  10 N10           -0.0451     8.1449    -0.1862 N.ar    
  11 C11           -0.0314     6.8281    -0.2037 C.ar    
  12 C12            2.3353     6.8451     0.2619 C.ar    
  13 C13            2.2730     8.2237     0.2706 C.ar    
  14 C14            1.0525     8.8514     0.0372 C.ar    
  15 N15            0.9836    10.2424     0.0451 N.am    
  16 C16            0.1421    12.4244     0.5603 C.3     
  17 C17           -0.2696    11.0115     0.0671 C.3     
  18 C18            2.0542    11.0555     0.0395 C.2     
  19 C19            1.6095    12.5013     0.0907 C.3     
  20 O20            3.2081    10.6845    -0.0004 O.2     
  21 C21           -0.7593    11.2019    -1.3777 C.3     
  22 C22           -0.7177    13.4022    -0.2533 C.3     
  23 C23           -1.0298    12.6981    -1.5817 C.3     
  24 H24            0.0364    12.5493     1.6380 H       
  25 H25           -1.0198    10.5535     0.7117 H       
  26 F26           -1.1081    -0.6886    -0.5395 F       
  27 H27           -0.9125     1.9113    -0.4648 H       
  28 H28            1.2265    -1.7621    -0.0921 H       
  29 H29            3.3066    -0.5228     0.3407 H       
  30 H30            3.2952     1.9353     0.3782 H       
  31 H31           -0.9468     6.2860    -0.3900 H       
  32 H32            3.2689     6.3323     0.4402 H       
  33 H33            3.1612     8.8092     0.4568 H       
  34 H34            1.6708    12.9554    -0.8983 H       
  35 H35            2.2111    13.0607     0.8071 H       
  36 H36            0.0079    10.8663    -2.0755 H       
  37 H37           -1.6772    10.6353    -1.5348 H       
  38 H38           -1.6423    13.6215     0.2806 H       
  39 H39           -0.1643    14.3228    -0.4385 H       
  40 H40           -0.3840    13.0877    -2.3686 H       
  41 H41           -2.0757    12.8530    -1.8467 H       
@<TRIPOS>BOND
   1    1    2 ar
   2    1    6 ar
   3    1   27 1
   4    2    3 ar
   5    2   26 1
   6    3    4 ar
   7    3   28 1
   8    4    5 ar
   9    4   29 1
  10    5    6 ar
  11    5   30 1
  12    6    7 1
  13    7    8 3
  14    8    9 1
  15    9   12 ar
  16    9   11 ar
  17   10   11 ar
  18   10   14 ar
  19   11   31 1
  20   12   13 ar
  21   12   32 1
  22   13   14 ar
  23   13   33 1
  24   14   15 1
  25   15   18 am
  26   15   17 1
  27   16   17 1
  28   16   19 1
  29   16   22 1
  30   16   24 1
  31   17   21 1
  32   17   25 1
  33   18   19 1
  34   18   20 2
  35   19   34 1
  36   19   35 1
  37   21   23 1
  38   21   36 1
  39   21   37 1
  40   22   23 1
  41   22   38 1
  42   22   39 1
  43   23   40 1
  44   23   41 1

#	End of record

