#	Name: ASD04591125
#	Creating user name:	WinNT
#	Creation time:	15. 06. 2019 20:52

#	Modifying user name:	WinNT
#	Modification time:	15. 06. 2019 20:52

#	Program:	/corina/corina34_cracker 3.40 0067  02.08.2006

@<TRIPOS>MOLECULE
ASD04591125
  56   61    0    0    0
SMALL
NO_CHARGES


@<TRIPOS>ATOM
   1 N1            -0.0171     1.3236    -0.0119 N.ar    
   2 C2             0.0017    -0.0035    -0.0051 C.ar    
   3 N3             1.1296    -0.6954    -0.0122 N.ar    
   4 C4             2.3048    -0.0737    -0.0266 C.ar    
   5 C5             2.3189     1.3361    -0.0341 C.ar    
   6 C6             1.1067     2.0205    -0.0262 C.ar    
   7 N7             3.6026    -0.5203    -0.0370 N.pl3   
   8 C8             4.4796     0.5493    -0.0512 C.ar    
   9 C9             3.7305     1.7402    -0.0501 C.ar    
  10 C10            5.8661     0.6498    -0.0653 C.ar    
  11 N11            6.4195     1.8515    -0.0771 N.ar    
  12 C12            5.6836     2.9472    -0.0756 C.ar    
  13 N13            4.3678     2.9067    -0.0628 N.ar    
  14 N14           -1.2015    -0.6882     0.0103 N.pl3   
  15 C15           -2.4013     0.0128     0.1313 C.ar    
  16 C16            4.0023    -1.9297    -0.0328 C.3     
  17 N17           -2.3774     1.3205     0.3319 N.ar    
  18 C18           -3.4873     2.0240     0.4522 C.ar    
  19 C19           -4.7281     1.4101     0.3717 C.ar    
  20 C20           -4.7929     0.0335     0.1610 C.ar    
  21 C21           -3.6090    -0.6698     0.0340 C.ar    
  22 N22           -5.9011     2.1632     0.5008 N.3     
  23 C23           -5.5937     3.5840     0.7161 C.3     
  24 C24           -6.8982     4.3826     0.7724 C.3     
  25 N25           -7.7432     3.8597     1.8551 N.3     
  26 C26           -8.0506     2.4388     1.6398 C.3     
  27 C27           -6.7462     1.6403     1.5834 C.3     
  28 C28            3.4022    -2.6455     1.1949 C.3     
  29 C29            3.4387    -2.6411    -1.2754 C.3     
  30 C30            2.5158    -3.7644    -0.7594 C.3     
  31 C31            2.1030    -3.2958     0.6580 C.3     
  32 H32            1.0845     3.1003    -0.0320 H       
  33 H33            6.4810    -0.2381    -0.0664 H       
  34 H34            6.1767     3.9080    -0.0851 H       
  35 H35           -1.2101    -1.6554    -0.0630 H       
  36 H36            5.0893    -2.0092    -0.0179 H       
  37 H37           -3.4287     3.0899     0.6156 H       
  38 H38           -5.7454    -0.4712     0.0940 H       
  39 H39           -3.6220    -1.7372    -0.1299 H       
  40 H40           -5.0547     3.7011     1.6562 H       
  41 H41           -4.9777     3.9512    -0.1048 H       
  42 H42           -6.6739     5.4325     0.9610 H       
  43 H43           -7.4240     4.2876    -0.1776 H       
  44 H44           -7.3089     4.0035     2.7544 H       
  45 H45           -8.6667     2.0716     2.4606 H       
  46 H46           -8.5896     2.3218     0.6996 H       
  47 H47           -6.9704     0.5904     1.3949 H       
  48 H48           -6.2203     1.7353     2.5334 H       
  49 H49            4.0869    -3.4092     1.5636 H       
  50 H50            3.1722    -1.9264     1.9811 H       
  51 H51            2.8678    -1.9377    -1.8815 H       
  52 H52            4.2521    -3.0666    -1.8631 H       
  53 H53            1.6389    -3.8618    -1.3995 H       
  54 H54            3.0573    -4.7088    -0.7063 H       
  55 H55            1.8121    -4.1451     1.2762 H       
  56 H56            1.2981    -2.5627     0.6034 H       
@<TRIPOS>BOND
   1    1    2 ar
   2    1    6 ar
   3    2    3 ar
   4    2   14 1
   5    3    4 ar
   6    4    5 ar
   7    4    7 1
   8    5    6 ar
   9    5    9 1
  10    6   32 1
  11    7    8 1
  12    7   16 1
  13    8    9 ar
  14    8   10 ar
  15    9   13 ar
  16   10   11 ar
  17   10   33 1
  18   11   12 ar
  19   12   13 ar
  20   12   34 1
  21   14   15 1
  22   14   35 1
  23   15   17 ar
  24   15   21 ar
  25   16   29 1
  26   16   28 1
  27   16   36 1
  28   17   18 ar
  29   18   19 ar
  30   18   37 1
  31   19   20 ar
  32   19   22 1
  33   20   21 ar
  34   20   38 1
  35   21   39 1
  36   22   23 1
  37   22   27 1
  38   23   24 1
  39   23   40 1
  40   23   41 1
  41   24   25 1
  42   24   42 1
  43   24   43 1
  44   25   26 1
  45   25   44 1
  46   26   27 1
  47   26   45 1
  48   26   46 1
  49   27   47 1
  50   27   48 1
  51   28   31 1
  52   28   49 1
  53   28   50 1
  54   29   30 1
  55   29   51 1
  56   29   52 1
  57   30   31 1
  58   30   53 1
  59   30   54 1
  60   31   55 1
  61   31   56 1

#	End of record

