#	Name: ASD01209189
#	Creating user name:	WinNT
#	Creation time:	15. 06. 2019 19:11

#	Modifying user name:	WinNT
#	Modification time:	15. 06. 2019 19:11

#	Program:	/corina/corina34_cracker 3.40 0067  02.08.2006

@<TRIPOS>MOLECULE
ASD01209189
  70   72    0    0    0
SMALL
NO_CHARGES


@<TRIPOS>ATOM
   1 O1             1.0711     0.0458    -0.5653 O.3     
   2 O2             3.2192     0.8854     0.6968 O.3     
   3 C3             2.1136     5.9787    -8.7808 C.ar    
   4 C4             1.1824     6.1240    -9.7986 C.ar    
   5 C5            -0.1336     5.7307    -9.6016 C.ar    
   6 C6            -0.5226     5.1903    -8.3874 C.ar    
   7 C7             0.4110     5.0424    -7.3607 C.ar    
   8 C8             1.7344     5.4343    -7.5648 C.ar    
   9 O9            -1.0422     5.8761   -10.6019 O.3     
  10 C10            0.0002     4.4670    -6.0625 C.2     
  11 N11            0.9034     4.3250    -5.0723 N.am    
  12 O12           -1.1523     4.1219    -5.8880 O.2     
  13 C13            0.5174     3.7844    -3.8525 C.2     
  14 P14            2.2644     1.1265    -0.5769 P.3     
  15 O15            3.0533     0.9770    -1.8202 O.2     
  16 C16            1.5628     2.8074    -0.5009 C.3     
  17 N17            1.3039     3.6049    -2.8376 N.2     
  18 S18           -1.0657     3.2656    -3.4683 S.3     
  19 C19           -0.5328     2.7994    -1.8551 C.2     
  20 C20            0.7684     3.0772    -1.7527 C.2     
  21 C21            1.2906    -1.3577    -0.7199 C.3     
  22 C22           -0.0498    -2.0931    -0.6613 C.3     
  23 C23            3.9993    -0.2991     0.8716 C.3     
  24 C24            4.7864    -0.2029     2.1801 C.3     
  25 O25            3.4012     6.3660    -8.9789 O.3     
  26 C26            4.2802     6.2954    -7.8544 C.3     
  27 C27            4.8496     4.8799    -7.7402 C.3     
  28 C28            5.4258     7.2926    -8.0391 C.3     
  29 C29           -0.6042     6.5502   -11.7833 C.3     
  30 C30           -1.8050     7.1597   -12.5430 C.3     
  31 C31           -1.5009     6.9158   -14.0329 C.3     
  32 N32           -0.1918     6.2401   -14.1029 N.am    
  33 C33           -0.0247     5.5420   -12.8073 C.3     
  34 C34            0.6747     6.2541   -15.1351 C.2     
  35 O35            1.7227     5.6490   -15.0553 O.2     
  36 C36            0.3413     7.0216   -16.3885 C.3     
  37 H37            1.4824     6.5448   -10.7469 H       
  38 H38           -1.5472     4.8848    -8.2348 H       
  39 H39            2.4601     5.3216    -6.7729 H       
  40 H40            1.8230     4.6004    -5.2115 H       
  41 H41            0.9103     2.8897     0.3683 H       
  42 H42            2.3704     3.5348    -0.4192 H       
  43 H43           -1.1520     2.3677    -1.0826 H       
  44 H44            1.7672    -1.5472    -1.6817 H       
  45 H45            1.9364    -1.7150     0.0823 H       
  46 H46           -0.5264    -1.9036     0.3005 H       
  47 H47           -0.6956    -1.7358    -1.4635 H       
  48 H48            0.1176    -3.1637    -0.7792 H       
  49 H49            3.3401    -1.1664     0.9070 H       
  50 H50            4.6929    -0.4037     0.0373 H       
  51 H51            5.3814    -1.1064     2.3134 H       
  52 H52            5.4456     0.6644     2.1447 H       
  53 H53            4.0928    -0.0983     3.0144 H       
  54 H54            3.7288     6.5396    -6.9464 H       
  55 H55            4.0334     4.1695    -7.6086 H       
  56 H56            5.4009     4.6357    -8.6482 H       
  57 H57            5.5200     4.8260    -6.8825 H       
  58 H58            5.0201     8.3010    -8.1205 H       
  59 H59            6.0962     7.2387    -7.1814 H       
  60 H60            5.9771     7.0484    -8.9471 H       
  61 H61            0.1281     7.3194   -11.5380 H       
  62 H62           -2.7287     6.6561   -12.2577 H       
  63 H63           -1.8777     8.2284   -12.3414 H       
  64 H64           -2.2709     6.2797   -14.4697 H       
  65 H65           -1.4566     7.8670   -14.5633 H       
  66 H66            1.0295     5.3523   -12.6058 H       
  67 H67           -0.5931     4.6121   -12.7954 H       
  68 H68            0.7135     8.0422   -16.2993 H       
  69 H69            0.8090     6.5379   -17.2460 H       
  70 H70           -0.7398     7.0399   -16.5266 H       
@<TRIPOS>BOND
   1    1   21 1
   2    1   14 1
   3    2   23 1
   4    2   14 1
   5    3    4 ar
   6    3   25 1
   7    3    8 ar
   8    4    5 ar
   9    4   37 1
  10    5    6 ar
  11    5    9 1
  12    6    7 ar
  13    6   38 1
  14    7    8 ar
  15    7   10 1
  16    8   39 1
  17    9   29 1
  18   10   11 am
  19   10   12 2
  20   11   13 1
  21   11   40 1
  22   13   17 2
  23   13   18 1
  24   14   15 2
  25   14   16 1
  26   16   20 1
  27   16   41 1
  28   16   42 1
  29   17   20 1
  30   18   19 1
  31   19   20 2
  32   19   43 1
  33   21   22 1
  34   21   44 1
  35   21   45 1
  36   22   46 1
  37   22   47 1
  38   22   48 1
  39   23   24 1
  40   23   49 1
  41   23   50 1
  42   24   51 1
  43   24   52 1
  44   24   53 1
  45   25   26 1
  46   26   27 1
  47   26   28 1
  48   26   54 1
  49   27   55 1
  50   27   56 1
  51   27   57 1
  52   28   58 1
  53   28   59 1
  54   28   60 1
  55   29   30 1
  56   29   33 1
  57   29   61 1
  58   30   31 1
  59   30   62 1
  60   30   63 1
  61   31   32 1
  62   31   64 1
  63   31   65 1
  64   32   33 1
  65   32   34 am
  66   33   66 1
  67   33   67 1
  68   34   35 2
  69   34   36 1
  70   36   68 1
  71   36   69 1
  72   36   70 1

#	End of record

