#	Name: ASD09080035
#	Creating user name:	WinNT
#	Creation time:	15. 06. 2019 21:20

#	Modifying user name:	WinNT
#	Modification time:	15. 06. 2019 21:20

#	Program:	/corina/corina34_cracker 3.40 0067  02.08.2006

@<TRIPOS>MOLECULE
ASD09080035
  59   60    0    0    0
SMALL
NO_CHARGES


@<TRIPOS>ATOM
   1 C1            -0.0167     1.3772     0.0096 C.ar    
   2 C2             0.0021    -0.0041     0.0020 C.ar    
   3 C3            -1.1962    -0.7147     0.0101 C.ar    
   4 C4            -2.4082    -0.0277     0.0258 C.ar    
   5 C5            -2.4165     1.3537     0.0333 C.ar    
   6 C6            -1.2232     2.0552     0.0306 C.ar    
   7 Cl7            1.4756     2.2642     0.0001 Cl      
   8 Cl8           -3.9258     2.2111     0.0523 Cl      
   9 C9            -1.1817    -2.1986     0.0015 C.ar    
  10 C10           -2.3800    -2.9096     0.0096 C.ar    
  11 C11            0.0301    -2.8859    -0.0204 C.ar    
  12 C12            0.0377    -4.2660    -0.0283 C.ar    
  13 C13           -1.1547    -4.9669    -0.0144 C.ar    
  14 C14           -2.3607    -4.2896     0.0016 C.ar    
  15 C15           -1.1400    -6.4738    -0.0231 C.3     
  16 C16           -1.1135    -6.9918     1.4163 C.3     
  17 N17           -2.3591    -6.6203     2.0920 N.am    
  18 C18           -0.9728    -8.5153     1.4074 C.3     
  19 C19            0.3281    -8.9033     0.7017 C.3     
  20 O20           -0.9481    -8.9992     2.7518 O.3     
  21 O21            1.4260    -8.2334     1.3245 O.3     
  22 C22           -2.3881    -6.5015     3.4342 C.2     
  23 O23           -1.3830    -6.7021     4.0826 O.2     
  24 C24           -3.6694    -6.1193     4.1293 C.3     
  25 C25            0.5278   -10.3938     0.8003 C.2     
  26 O26            1.4615   -10.8381     1.4253 O.2     
  27 O27           -0.3316   -11.2277     0.1938 O.3     
  28 C28           -1.1533   -13.4359    -0.4216 C.3     
  29 C29           -0.0774   -12.6506     0.3312 C.3     
  30 O30           -3.4465    -6.0586     5.5395 O.3     
  31 C31           -4.2516    -5.6683     7.7845 C.3     
  32 C32           -4.6051    -5.7024     6.2963 C.3     
  33 H33            0.9441    -0.5322    -0.0105 H       
  34 H34           -3.3397    -0.5743     0.0318 H       
  35 H35           -1.2338     3.1351     0.0364 H       
  36 H36           -3.3222    -2.3818     0.0225 H       
  37 H37            0.9617    -2.3396    -0.0316 H       
  38 H38            0.9765    -4.7998    -0.0457 H       
  39 H39           -3.2888    -4.8418     0.0127 H       
  40 H40           -2.0339    -6.8430    -0.5257 H       
  41 H41           -0.2542    -6.8254    -0.5522 H       
  42 H42           -0.2680    -6.5520     1.9452 H       
  43 H43           -3.1630    -6.4598     1.5734 H       
  44 H44           -1.8183    -8.9552     0.8785 H       
  45 H45            0.2729    -8.6128    -0.3474 H       
  46 H46           -1.7433    -8.7890     3.2602 H       
  47 H47            1.5356    -8.4452     2.2616 H       
  48 H48           -4.0000    -5.1443     3.7714 H       
  49 H49           -4.4355    -6.8642     3.9143 H       
  50 H50           -0.9625   -14.5041    -0.3184 H       
  51 H51           -2.1329   -13.2000    -0.0059 H       
  52 H52           -1.1309   -13.1630    -1.4766 H       
  53 H53            0.9023   -12.8865    -0.0844 H       
  54 H54           -0.0997   -12.9235     1.3863 H       
  55 H55           -3.9015    -6.6520     8.0974 H       
  56 H56           -3.4660    -4.9320     7.9546 H       
  57 H57           -5.1354    -5.3966     8.3618 H       
  58 H58           -4.9552    -4.7187     5.9834 H       
  59 H59           -5.3907    -6.4386     6.1262 H       
@<TRIPOS>BOND
   1    1    2 ar
   2    1    7 1
   3    1    6 ar
   4    2    3 ar
   5    2   33 1
   6    3    4 ar
   7    3    9 1
   8    4    5 ar
   9    4   34 1
  10    5    6 ar
  11    5    8 1
  12    6   35 1
  13    9   10 ar
  14    9   11 ar
  15   10   14 ar
  16   10   36 1
  17   11   12 ar
  18   11   37 1
  19   12   13 ar
  20   12   38 1
  21   13   14 ar
  22   13   15 1
  23   14   39 1
  24   15   16 1
  25   15   40 1
  26   15   41 1
  27   16   17 1
  28   16   18 1
  29   16   42 1
  30   17   22 am
  31   17   43 1
  32   18   19 1
  33   18   20 1
  34   18   44 1
  35   19   21 1
  36   19   25 1
  37   19   45 1
  38   20   46 1
  39   21   47 1
  40   22   23 2
  41   22   24 1
  42   24   30 1
  43   24   48 1
  44   24   49 1
  45   25   26 2
  46   25   27 1
  47   27   29 1
  48   28   29 1
  49   28   50 1
  50   28   51 1
  51   28   52 1
  52   29   53 1
  53   29   54 1
  54   30   32 1
  55   31   32 1
  56   31   55 1
  57   31   56 1
  58   31   57 1
  59   32   58 1
  60   32   59 1

#	End of record

