#	Name: ASD03430014
#	Creating user name:	WinNT
#	Creation time:	15. 06. 2019 20:40

#	Modifying user name:	WinNT
#	Modification time:	15. 06. 2019 20:40

#	Program:	/corina/corina34_cracker 3.40 0067  02.08.2006

@<TRIPOS>MOLECULE
ASD03430014
  53   58    0    0    0
SMALL
NO_CHARGES


@<TRIPOS>ATOM
   1 C1            -0.3389     1.8487    -0.2520 C.ar    
   2 C2            -0.2244     0.4696    -0.1674 C.ar    
   3 C3             1.0203    -0.1228    -0.1354 C.ar    
   4 C4             2.1753     0.6523    -0.1765 C.ar    
   5 C5             2.0568     2.0357    -0.2646 C.ar    
   6 C6             0.8080     2.6327    -0.3013 C.ar    
   7 O7             3.2943    -0.1242    -0.1063 O.3     
   8 C8             1.4690    -1.5582    -0.0712 C.3     
   9 C9             2.9541    -1.4807    -0.4512 C.3     
  10 C10            0.4563    -3.2726     1.0933 C.ar    
  11 C11            1.2691    -2.1584     1.2887 C.ar    
  12 C12            0.6978    -2.4385    -1.0123 C.2     
  13 N13            0.1405    -3.4088    -0.2606 N.am    
  14 O14            0.5958    -2.3027    -2.2132 O.2     
  15 C15            1.7079    -1.8239     2.5499 C.ar    
  16 C16            1.3428    -2.5966     3.6384 C.ar    
  17 C17            0.5367    -3.7050     3.4562 C.ar    
  18 C18            0.0945    -4.0446     2.1942 C.ar    
  19 C19           -0.6980    -4.4818    -0.8009 C.3     
  20 O20           -1.5757     2.4168    -0.2912 O.3     
  21 C21           -1.6496     3.8180    -0.0063 C.3     
  22 C22           -0.5411     4.5275    -0.7956 C.3     
  23 O23            0.7191     3.9890    -0.3822 O.3     
  24 C24           -2.1395    -4.0424    -0.7982 C.ar    
  25 C25           -2.6723    -3.3921    -1.8932 C.ar    
  26 N26           -3.9331    -3.0030    -1.9018 N.ar    
  27 C27           -4.7333    -3.2186    -0.8694 C.ar    
  28 C28           -4.2632    -3.8688     0.2670 C.ar    
  29 C29           -2.9471    -4.2928     0.3034 C.ar    
  30 C30           -6.9271    -3.1153     0.0981 C.2     
  31 N31           -6.0568    -2.7905    -0.9213 N.pl3   
  32 N32           -8.1247    -2.6312     0.1037 N.2     
  33 O33           -8.5100    -1.6839    -0.8757 O.3     
  34 H34           -1.1132    -0.1426    -0.1261 H       
  35 H35            2.9453     2.6484    -0.3044 H       
  36 H36            3.0900    -1.6543    -1.5187 H       
  37 H37            3.5409    -2.1879     0.1349 H       
  38 H38            2.3378    -0.9580     2.6899 H       
  39 H39            1.6872    -2.3346     4.6280 H       
  40 H40            0.2520    -4.3080     4.3057 H       
  41 H41           -0.5347    -4.9120     2.0597 H       
  42 H42           -0.3883    -4.7059    -1.8217 H       
  43 H43           -0.5889    -5.3737    -0.1840 H       
  44 H44           -2.6224     4.2042    -0.3105 H       
  45 H45           -1.5048     3.9842     1.0612 H       
  46 H46           -0.6817     4.3551    -1.8627 H       
  47 H47           -0.5696     5.5973    -0.5887 H       
  48 H48           -2.0490    -3.1989    -2.7538 H       
  49 H49           -4.9180    -4.0435     1.1078 H       
  50 H50           -2.5542    -4.8001     1.1721 H       
  51 H51           -6.6073    -3.7744     0.8916 H       
  52 H52           -6.3670    -2.2638    -1.6745 H       
  53 H53           -9.3976    -1.3227    -0.7458 H       
@<TRIPOS>BOND
   1    1    2 ar
   2    1    6 ar
   3    1   20 1
   4    2    3 ar
   5    2   34 1
   6    3    4 ar
   7    3    8 1
   8    4    5 ar
   9    4    7 1
  10    5    6 ar
  11    5   35 1
  12    6   23 1
  13    7    9 1
  14    8    9 1
  15    8   11 1
  16    8   12 1
  17    9   36 1
  18    9   37 1
  19   10   11 ar
  20   10   13 1
  21   10   18 ar
  22   11   15 ar
  23   12   13 am
  24   12   14 2
  25   13   19 1
  26   15   16 ar
  27   15   38 1
  28   16   17 ar
  29   16   39 1
  30   17   18 ar
  31   17   40 1
  32   18   41 1
  33   19   24 1
  34   19   42 1
  35   19   43 1
  36   20   21 1
  37   21   22 1
  38   21   44 1
  39   21   45 1
  40   22   23 1
  41   22   46 1
  42   22   47 1
  43   24   25 ar
  44   24   29 ar
  45   25   26 ar
  46   25   48 1
  47   26   27 ar
  48   27   28 ar
  49   27   31 1
  50   28   29 ar
  51   28   49 1
  52   29   50 1
  53   30   31 1
  54   30   32 2
  55   30   51 1
  56   31   52 1
  57   32   33 1
  58   33   53 1

#	End of record

