#	Name: ASD01882636
#	Creating user name:	WinNT
#	Creation time:	15. 06. 2019 19:44

#	Modifying user name:	WinNT
#	Modification time:	15. 06. 2019 19:44

#	Program:	/corina/corina34_cracker 3.40 0067  02.08.2006

@<TRIPOS>MOLECULE
ASD01882636
  65   70    0    0    0
SMALL
NO_CHARGES


@<TRIPOS>ATOM
   1 C1             1.6595     1.6543     0.1736 C.2     
   2 C2             1.7795     0.2597     0.2979 C.2     
   3 C3             1.2611    -0.5441    -0.6809 C.2     
   4 C4             0.6174     0.0398    -1.7937 C.2     
   5 C5             0.5136     1.3795    -1.8926 C.2     
   6 N6             1.0271     2.1896    -0.9222 N.pl3   
   7 N7             1.6915     3.7773     0.3732 N.2     
   8 N8             2.0403     2.6716     0.9311 N.2     
   9 C9             1.0724     3.5424    -0.7536 C.2     
  10 C10            2.4708    -0.3431     1.4936 C.3     
  11 F11            3.8178    -0.5675     1.1895 F       
  12 F12            2.3777     0.5357     2.5782 F       
  13 F13            1.8587    -1.5571     1.8232 F       
  14 N14            1.3680    -1.9279    -0.5802 N.pl3   
  15 C15            2.6813    -2.5838    -0.6429 C.3     
  16 C16            2.6419    -3.6634    -1.7290 C.3     
  17 C17            1.4761    -4.6160    -1.4537 C.3     
  18 C18            0.1586    -3.8385    -1.4974 C.3     
  19 C19            0.1704    -2.7604    -0.4031 C.3     
  20 C20            1.4548    -5.6993    -2.5010 C.ar    
  21 C21            1.2197    -5.3766    -3.8245 C.ar    
  22 C22            1.2001    -6.3703    -4.7852 C.ar    
  23 C23            1.4160    -7.6867    -4.4226 C.ar    
  24 C24            1.6520    -8.0092    -3.0993 C.ar    
  25 C25            1.6759    -7.0150    -2.1392 C.ar    
  26 N26            1.6427    -5.2224    -0.1261 N.3     
  27 C27            2.9590    -5.8650    -0.0018 C.3     
  28 C28            3.1135    -6.4303     1.4126 C.3     
  29 O29            2.0406    -7.3381     1.6775 O.3     
  30 C30            0.7440    -6.7452     1.5660 C.3     
  31 C31            0.5655    -6.1831     0.1532 C.3     
  32 C32            0.5096     4.5771    -1.6937 C.3     
  33 C33           -0.9394     4.8817    -1.3085 C.3     
  34 C34           -1.6540     5.9977    -2.0732 C.3     
  35 C35           -2.0285     4.5359    -2.3258 C.3     
  36 H36            0.2069    -0.5901    -2.5691 H       
  37 H37            0.0196     1.8161    -2.7480 H       
  38 H38            3.4464    -1.8470    -0.8877 H       
  39 H39            2.9072    -3.0421     0.3199 H       
  40 H40            2.5060    -3.1944    -2.7035 H       
  41 H41            3.5778    -4.2220    -1.7208 H       
  42 H42            0.0462    -3.3678    -2.4741 H       
  43 H43           -0.6729    -4.5217    -1.3244 H       
  44 H44            0.1957    -3.2328     0.5789 H       
  45 H45           -0.7218    -2.1401    -0.4896 H       
  46 H46            1.0510    -4.3482    -4.1078 H       
  47 H47            1.0158    -6.1183    -5.8191 H       
  48 H48            1.4000    -8.4631    -5.1731 H       
  49 H49            1.8203    -9.0377    -2.8159 H       
  50 H50            1.8639    -7.2665    -1.1058 H       
  51 H51            3.0391    -6.6741    -0.7278 H       
  52 H52            3.7420    -5.1297    -0.1874 H       
  53 H53            4.0643    -6.9573     1.4921 H       
  54 H54            3.0871    -5.6148     2.1354 H       
  55 H55           -0.0190    -7.5000     1.7565 H       
  56 H56            0.6487    -5.9389     2.2933 H       
  57 H57           -0.3988    -5.6801     0.0807 H       
  58 H58            0.6073    -6.9973    -0.5704 H       
  59 H59            1.1027     5.4892    -1.6273 H       
  60 H60            0.5418     4.1963    -2.7145 H       
  61 H61           -1.1803     4.7613    -0.2523 H       
  62 H62           -2.3653     6.6111    -1.5203 H       
  63 H63           -1.0918     6.5148    -2.8508 H       
  64 H64           -1.7127     4.0913    -3.2696 H       
  65 H65           -2.9862     4.1876    -1.9391 H       
@<TRIPOS>BOND
   1    1    2 1
   2    1    6 1
   3    1    8 2
   4    2    3 2
   5    2   10 1
   6    3    4 1
   7    3   14 1
   8    4    5 2
   9    4   36 1
  10    5    6 1
  11    5   37 1
  12    6    9 1
  13    7    8 1
  14    7    9 2
  15    9   32 1
  16   10   11 1
  17   10   12 1
  18   10   13 1
  19   14   15 1
  20   14   19 1
  21   15   16 1
  22   15   38 1
  23   15   39 1
  24   16   17 1
  25   16   40 1
  26   16   41 1
  27   17   18 1
  28   17   20 1
  29   17   26 1
  30   18   19 1
  31   18   42 1
  32   18   43 1
  33   19   44 1
  34   19   45 1
  35   20   21 ar
  36   20   25 ar
  37   21   22 ar
  38   21   46 1
  39   22   23 ar
  40   22   47 1
  41   23   24 ar
  42   23   48 1
  43   24   25 ar
  44   24   49 1
  45   25   50 1
  46   26   27 1
  47   26   31 1
  48   27   28 1
  49   27   51 1
  50   27   52 1
  51   28   29 1
  52   28   53 1
  53   28   54 1
  54   29   30 1
  55   30   31 1
  56   30   55 1
  57   30   56 1
  58   31   57 1
  59   31   58 1
  60   32   33 1
  61   32   59 1
  62   32   60 1
  63   33   34 1
  64   33   35 1
  65   33   61 1
  66   34   35 1
  67   34   62 1
  68   34   63 1
  69   35   64 1
  70   35   65 1

#	End of record

