#	Name: ASD01810101
#	Creating user name:	WinNT
#	Creation time:	15. 06. 2019 19:23

#	Modifying user name:	WinNT
#	Modification time:	15. 06. 2019 19:23

#	Program:	/corina/corina34_cracker 3.40 0067  02.08.2006

@<TRIPOS>MOLECULE
ASD01810101
  59   63    0    0    0
SMALL
NO_CHARGES


@<TRIPOS>ATOM
   1 C1            -0.0167     1.3817     0.0096 C.ar    
   2 C2             0.0021    -0.0041     0.0020 C.ar    
   3 C3            -1.1816    -0.7163     0.0095 C.ar    
   4 C4            -2.3928    -0.0426     0.0251 C.ar    
   5 C5            -2.4129     1.3539     0.0333 C.ar    
   6 C6            -1.2211     2.0619     0.0306 C.ar    
   7 N7            -3.7214    -0.4642     0.0361 N.am    
   8 C8            -4.5118     0.6257     0.0503 C.2     
   9 N9            -3.7519     1.7371     0.0490 N.am    
  10 O10           -5.7285     0.6088     0.0621 O.2     
  11 C11           -4.2488     3.1151     0.0623 C.3     
  12 C12           -5.1137     3.3592    -1.1775 C.3     
  13 C13           -5.6793     4.7803    -1.1273 C.3     
  14 N14           -6.4814     4.9465     0.0915 N.3     
  15 C15           -5.6614     4.7634     1.2959 C.3     
  16 C16           -5.0952     3.3418     1.3180 C.3     
  17 C17           -7.1532     6.2527     0.1056 C.3     
  18 C18           -8.0744     6.3392     1.3247 C.3     
  19 C19           -8.7992     7.6887     1.3173 C.3     
  20 N20           -7.7992     8.7623     1.2393 N.am    
  21 C21           -6.8068     8.7260     0.1564 C.3     
  22 C22           -6.1043     7.3648     0.1768 C.3     
  23 S23           -7.7910     9.9901     2.3504 S.o2    
  24 C24           -6.7524     9.4830     3.6804 C.ar    
  25 C25           -5.4016     9.7750     3.6527 C.ar    
  26 C26           -4.5868     9.3771     4.6961 C.ar    
  27 C27           -5.1230     8.6876     5.7675 C.ar    
  28 C28           -6.4740     8.3963     5.7957 C.ar    
  29 C29           -7.2895     8.7980     4.7543 C.ar    
  30 O30           -7.1392    11.0893     1.7290 O.2     
  31 O31           -9.1090    10.0642     2.8763 O.2     
  32 F32            1.1454     2.0707     0.0022 F       
  33 H33            0.9457    -0.5292    -0.0102 H       
  34 H34           -1.1633    -1.7961     0.0028 H       
  35 H35           -1.2330     3.1418     0.0369 H       
  36 H36           -4.0248    -1.3855     0.0339 H       
  37 H37           -3.4060     3.8063     0.0603 H       
  38 H38           -4.5056     3.2411    -2.0744 H       
  39 H39           -5.9338     2.6415    -1.1961 H       
  40 H40           -4.8587     5.4978    -1.1226 H       
  41 H41           -6.3071     4.9525    -2.0015 H       
  42 H42           -4.8409     5.4810     1.2892 H       
  43 H43           -6.2762     4.9233     2.1816 H       
  44 H44           -5.9152     2.6238     1.3386 H       
  45 H45           -4.4740     3.2112     2.2040 H       
  46 H46           -7.7428     6.3676    -0.8039 H       
  47 H47           -8.8066     5.5327     1.2853 H       
  48 H48           -7.4821     6.2493     2.2353 H       
  49 H49           -9.4617     7.7430     0.4534 H       
  50 H50           -9.3803     7.7965     2.2332 H       
  51 H51           -7.3068     8.8648    -0.8022 H       
  52 H52           -6.0732     9.5181     0.3063 H       
  53 H53           -5.5305     7.2653     1.0982 H       
  54 H54           -5.4343     7.2884    -0.6796 H       
  55 H55           -4.9827    10.3138     2.8156 H       
  56 H56           -3.5313     9.6047     4.6740 H       
  57 H57           -4.4863     8.3761     6.5824 H       
  58 H58           -6.8928     7.8573     6.6326 H       
  59 H59           -8.3451     8.5705     4.7764 H       
@<TRIPOS>BOND
   1    1    2 ar
   2    1   32 1
   3    1    6 ar
   4    2    3 ar
   5    2   33 1
   6    3    4 ar
   7    3   34 1
   8    4    5 ar
   9    4    7 1
  10    5    6 ar
  11    5    9 1
  12    6   35 1
  13    7    8 am
  14    7   36 1
  15    8    9 am
  16    8   10 2
  17    9   11 1
  18   11   12 1
  19   11   16 1
  20   11   37 1
  21   12   13 1
  22   12   38 1
  23   12   39 1
  24   13   14 1
  25   13   40 1
  26   13   41 1
  27   14   15 1
  28   14   17 1
  29   15   16 1
  30   15   42 1
  31   15   43 1
  32   16   44 1
  33   16   45 1
  34   17   18 1
  35   17   22 1
  36   17   46 1
  37   18   19 1
  38   18   47 1
  39   18   48 1
  40   19   20 1
  41   19   49 1
  42   19   50 1
  43   20   21 1
  44   20   23 am
  45   21   22 1
  46   21   51 1
  47   21   52 1
  48   22   53 1
  49   22   54 1
  50   23   30 2
  51   23   31 2
  52   23   24 1
  53   24   25 ar
  54   24   29 ar
  55   25   26 ar
  56   25   55 1
  57   26   27 ar
  58   26   56 1
  59   27   28 ar
  60   27   57 1
  61   28   29 ar
  62   28   58 1
  63   29   59 1

#	End of record

