#	Name: ASD00860002
#	Creating user name:	WinNT
#	Creation time:	15. 06. 2019 18:53

#	Modifying user name:	WinNT
#	Modification time:	15. 06. 2019 18:53

#	Program:	/corina/corina34_cracker 3.40 0067  02.08.2006

@<TRIPOS>MOLECULE
ASD00860002
  35   36    0    0    0
SMALL
NO_CHARGES


@<TRIPOS>ATOM
   1 C1            -0.0173     1.4248     0.0099 C.3     
   2 C2             1.4181     1.9544    -0.0010 C.3     
   3 C3             1.4245     3.4933     0.1334 C.3     
   4 O4             1.6779     3.8766     1.4866 O.3     
   5 C5             2.5832     3.9454    -0.7833 C.3     
   6 O6             3.5875     4.6217    -0.0244 O.3     
   7 C7             3.1397     2.6261    -1.3632 C.3     
   8 O8             2.0408     1.6928    -1.2776 O.3     
   9 N9             3.5429     2.8126    -2.7592 N.am    
  10 C10            2.6155     3.0997    -3.6911 C.2     
  11 O11            1.4454     3.2018    -3.3615 O.2     
  12 N12            2.9543     3.2747    -4.9672 N.2     
  13 C13            4.2192     3.1694    -5.3527 C.2     
  14 N14            4.5574     3.3526    -6.6735 N.pl3   
  15 C15            5.2152     2.8690    -4.4009 C.2     
  16 C16            4.8557     2.6999    -3.1064 C.2     
  17 P17           -1.3361    -0.8992     0.0100 P.3     
  18 O18           -2.2020    -0.5022    -1.1227 O.2     
  19 O19            0.0021    -0.0041     0.0020 O.3     
  20 O20           -2.1257    -0.6718     1.3945 O.3     
  21 O21           -0.9428    -2.4537    -0.1344 O.3     
  22 H22           -0.5275     1.7763     0.9067 H       
  23 H23           -0.5445     1.7859    -0.8732 H       
  24 H24            1.9953     1.5007     0.8047 H       
  25 H25            0.4780     3.9106    -0.2099 H       
  26 H26            1.6929     4.8331     1.6281 H       
  27 H27            2.2107     4.5884    -1.5807 H       
  28 H28            3.2755     5.4262     0.4121 H       
  29 H29            3.9826     2.2755    -0.7675 H       
  30 H30            3.8700     3.5595    -7.3259 H       
  31 H31            5.4832     3.2750    -6.9524 H       
  32 H32            6.2494     2.7796    -4.6989 H       
  33 H33            5.6009     2.4742    -2.3579 H       
  34 H34           -1.6172    -0.9117     2.1813 H       
  35 H35           -1.7018    -3.0529    -0.1370 H       
@<TRIPOS>BOND
   1    1   19 1
   2    1    2 1
   3    1   22 1
   4    1   23 1
   5    2    3 1
   6    2    8 1
   7    2   24 1
   8    3    4 1
   9    3    5 1
  10    3   25 1
  11    4   26 1
  12    5    6 1
  13    5    7 1
  14    5   27 1
  15    6   28 1
  16    7    8 1
  17    7    9 1
  18    7   29 1
  19    9   10 am
  20    9   16 1
  21   10   11 2
  22   10   12 1
  23   12   13 2
  24   13   14 1
  25   13   15 1
  26   14   30 1
  27   14   31 1
  28   15   16 2
  29   15   32 1
  30   16   33 1
  31   17   18 2
  32   17   19 1
  33   17   20 1
  34   17   21 1
  35   20   34 1
  36   21   35 1

#	End of record

