#	Name: ASD01841060
#	Creating user name:	WinNT
#	Creation time:	15. 06. 2019 19:38

#	Modifying user name:	WinNT
#	Modification time:	15. 06. 2019 19:38

#	Program:	/corina/corina34_cracker 3.40 0067  02.08.2006

@<TRIPOS>MOLECULE
ASD01841060
  37   39    0    0    0
SMALL
NO_CHARGES


@<TRIPOS>ATOM
   1 S1            -0.0187     1.7481    -0.2065 S.3     
   2 C2             0.0033    -0.0066    -0.0914 C.2     
   3 N3             1.2174    -0.4329    -0.0054 N.2     
   4 C4             2.2028     0.4641    -0.0164 C.ar    
   5 C5             1.7411     1.7838    -0.1244 C.ar    
   6 C6             2.6433     2.8476    -0.1502 C.ar    
   7 C7             3.9963     2.6122    -0.0705 C.ar    
   8 C8             4.4728     1.3128     0.0364 C.ar    
   9 C9             3.6038     0.2475     0.0653 C.ar    
  10 C10            2.1333     4.2609    -0.2666 C.3     
  11 O11            4.0876    -1.0172     0.1708 O.3     
  12 C12            5.5069    -1.1644     0.2489 C.3     
  13 C13           -2.2007    -3.0139     0.1136 C.ar    
  14 C14           -3.3173    -2.5691     0.8173 C.ar    
  15 C15           -4.4206    -3.4032     0.8961 C.ar    
  16 C16           -4.3780    -4.6395     0.2790 C.ar    
  17 N17           -3.3048    -5.0317    -0.3797 N.ar    
  18 C18           -2.2342    -4.2697    -0.4796 C.ar    
  19 C19           -5.5745    -5.5521     0.3605 C.3     
  20 C20           -1.1962    -0.8680    -0.0922 C.2     
  21 O21           -2.3021    -0.3701    -0.1769 O.2     
  22 N22           -1.0649    -2.2061     0.0011 N.am    
  23 H23            4.6894     3.4402    -0.0914 H       
  24 H24            5.5366     1.1368     0.0979 H       
  25 H25            1.9612     4.6683     0.7297 H       
  26 H26            2.8714     4.8718    -0.7864 H       
  27 H27            1.1986     4.2649    -0.8272 H       
  28 H28            5.7585    -2.2219     0.3297 H       
  29 H29            5.9652    -0.7494    -0.6487 H       
  30 H30            5.8795    -0.6343     1.1254 H       
  31 H31           -3.3228    -1.5982     1.2901 H       
  32 H32           -5.3038    -3.0913     1.4337 H       
  33 H33           -1.3743    -4.6251    -1.0277 H       
  34 H34           -6.2394    -5.3555    -0.4805 H       
  35 H35           -5.2428    -6.5899     0.3267 H       
  36 H36           -6.1066    -5.3710     1.2944 H       
  37 H37           -0.1825    -2.6088    -0.0099 H       
@<TRIPOS>BOND
   1    1    2 1
   2    1    5 1
   3    2    3 2
   4    2   20 1
   5    3    4 1
   6    4    5 ar
   7    4    9 ar
   8    5    6 ar
   9    6    7 ar
  10    6   10 1
  11    7    8 ar
  12    7   23 1
  13    8    9 ar
  14    8   24 1
  15    9   11 1
  16   10   25 1
  17   10   26 1
  18   10   27 1
  19   11   12 1
  20   12   28 1
  21   12   29 1
  22   12   30 1
  23   13   14 ar
  24   13   18 ar
  25   13   22 1
  26   14   15 ar
  27   14   31 1
  28   15   16 ar
  29   15   32 1
  30   16   17 ar
  31   16   19 1
  32   17   18 ar
  33   18   33 1
  34   19   34 1
  35   19   35 1
  36   19   36 1
  37   20   21 2
  38   20   22 am
  39   22   37 1

#	End of record

