#	Name: ASD01870587
#	Creating user name:	WinNT
#	Creation time:	15. 06. 2019 19:39

#	Modifying user name:	WinNT
#	Modification time:	15. 06. 2019 19:39

#	Program:	/corina/corina34_cracker 3.40 0067  02.08.2006

@<TRIPOS>MOLECULE
ASD01870587
  41   44    0    0    0
SMALL
NO_CHARGES


@<TRIPOS>ATOM
   1 C1            -0.0053     1.4048     0.0419 C.ar    
   2 C2             0.0062     0.0152     0.0413 C.ar    
   3 C3             1.2091    -0.6654     0.0155 C.ar    
   4 C4             2.4058     0.0408    -0.0098 C.ar    
   5 C5             2.3927     1.4295    -0.0091 C.ar    
   6 C6             1.1912     2.1092     0.0166 C.ar    
   7 N7             3.6248    -0.6479    -0.0355 N.am    
   8 C8             4.6730    -0.1377    -0.7119 C.2     
   9 O9             4.5326     0.8674    -1.3839 O.2     
  10 N10           -1.2239     2.0950     0.0623 N.am    
  11 C11           -1.9233     2.4808    -1.0189 C.2     
  12 C12           -3.1539     3.1816    -0.6089 C.ar    
  13 C13           -1.9507     2.5107     1.2673 C.3     
  14 C14           -5.2452     4.3652    -0.6757 C.ar    
  15 C15           -5.2731     4.3941     0.7069 C.ar    
  16 C16           -4.2469     3.8174     1.4370 C.ar    
  17 C17           -3.1937     3.2174     0.7872 C.ar    
  18 C18           -4.1939     3.7635    -1.3392 C.ar    
  19 O19           -1.5888     2.2804    -2.1705 O.2     
  20 C20            5.9824    -0.7933    -0.6381 C.2     
  21 O21            6.2716    -1.9101     0.0614 O.3     
  22 C22            7.1216    -0.3838    -1.2701 C.2     
  23 C23            8.1274    -1.2989    -0.9221 C.2     
  24 C24            7.5645    -2.2171    -0.1059 C.2     
  25 C25            7.2701     0.8176    -2.1677 C.3     
  26 Cl26          -4.1639     3.7307    -3.0746 Cl      
  27 Cl27          -1.4894    -0.8657     0.0734 Cl      
  28 Cl28           1.2250    -2.4013     0.0152 Cl      
  29 H29            3.3228     1.9780    -0.0288 H       
  30 H30            1.1820     3.1891     0.0171 H       
  31 H31            3.7148    -1.4922     0.4335 H       
  32 H32           -2.2194     1.6379     1.8624 H       
  33 H33           -1.3387     3.1930     1.8572 H       
  34 H34           -6.0485     4.8166    -1.2391 H       
  35 H35           -6.0985     4.8664     1.2188 H       
  36 H36           -4.2720     3.8423     2.5164 H       
  37 H37            9.1569    -1.2753    -1.2477 H       
  38 H38            8.0731    -3.0607     0.3371 H       
  39 H39            7.5496     1.6853    -1.5702 H       
  40 H40            8.0441     0.6231    -2.9101 H       
  41 H41            6.3238     1.0134    -2.6721 H       
@<TRIPOS>BOND
   1    1    2 ar
   2    1    6 ar
   3    1   10 1
   4    2    3 ar
   5    2   27 1
   6    3    4 ar
   7    3   28 1
   8    4    5 ar
   9    4    7 1
  10    5    6 ar
  11    5   29 1
  12    6   30 1
  13    7    8 am
  14    7   31 1
  15    8    9 2
  16    8   20 1
  17   10   11 am
  18   10   13 1
  19   11   12 1
  20   11   19 2
  21   12   18 ar
  22   12   17 ar
  23   13   17 1
  24   13   32 1
  25   13   33 1
  26   14   15 ar
  27   14   18 ar
  28   14   34 1
  29   15   16 ar
  30   15   35 1
  31   16   17 ar
  32   16   36 1
  33   18   26 1
  34   20   22 2
  35   20   21 1
  36   21   24 1
  37   22   23 1
  38   22   25 1
  39   23   24 2
  40   23   37 1
  41   24   38 1
  42   25   39 1
  43   25   40 1
  44   25   41 1

#	End of record

