#	Name: ASD01208053
#	Creating user name:	WinNT
#	Creation time:	15. 06. 2019 19:09

#	Modifying user name:	WinNT
#	Modification time:	15. 06. 2019 19:09

#	Program:	/corina/corina34_cracker 3.40 0067  02.08.2006

@<TRIPOS>MOLECULE
ASD01208053
  65   69    0    0    0
SMALL
NO_CHARGES


@<TRIPOS>ATOM
   1 C1            -0.5074     1.5462     0.1537 C.ar    
   2 C2            -0.2855     0.1791     0.0738 C.ar    
   3 C3            -1.3570    -0.7032     0.0744 C.ar    
   4 C4            -2.6530    -0.2217     0.1548 C.ar    
   5 C5            -2.8807     1.1531     0.2353 C.ar    
   6 C6            -1.8001     2.0362     0.2397 C.ar    
   7 C7            -4.2617     1.6716     0.3212 C.2     
   8 C8            -4.6170     2.9872     0.4037 C.2     
   9 N9            -5.4037     0.9137     0.3257 N.pl3   
  10 C10           -6.4850     1.7558     0.4170 C.2     
  11 C11           -6.0117     3.0488     0.4664 C.2     
  12 O12            0.5454     2.4057     0.1532 O.3     
  13 C13            0.2430     3.8018     0.1165 C.3     
  14 C14            1.4238     4.5636    -0.4888 C.3     
  15 O15            2.5586     4.4450     0.3716 O.3     
  16 C16           -0.0140     4.3055     1.5382 C.3     
  17 O17           -1.1340    -2.0414    -0.0045 O.3     
  18 C18           -1.5430    -2.6905    -1.1237 C.ar    
  19 C19           -1.4502    -4.0760    -1.1948 C.ar    
  20 C20           -2.0588    -1.9691    -2.1940 C.ar    
  21 C21           -2.4749    -2.6242    -3.3317 C.ar    
  22 C22           -2.3780    -4.0159    -3.4091 C.ar    
  23 C23           -1.8637    -4.7381    -2.3288 C.ar    
  24 C24           -7.8980     1.3494     0.4523 C.2     
  25 C25            3.7222     5.1245    -0.1041 C.3     
  26 N26           -8.9175     2.1597     0.5392 N.2     
  27 C27          -10.1118     1.6143     0.5571 C.2     
  28 C28          -10.1450     0.2797     0.4834 C.2     
  29 S29           -8.4873    -0.3091     0.3763 S.3     
  30 C30           -0.8959    -4.8538    -0.0291 C.3     
  31 C31           -2.8228    -4.7219    -4.6266 C.2     
  32 N32           -3.1633    -4.0205    -5.7259 N.am    
  33 O33           -2.8820    -5.9363    -4.6378 O.2     
  34 C34           -3.5843    -4.3408    -7.0982 C.3     
  35 C35           -2.9929    -2.9938    -7.5362 C.3     
  36 C36           -3.2837    -2.5980    -6.0793 C.3     
  37 H37            0.7239    -0.1997     0.0107 H       
  38 H38           -3.4862    -0.9088     0.1548 H       
  39 H39           -1.9719     3.1006     0.3022 H       
  40 H40           -3.9412     3.8295     0.4182 H       
  41 H41           -5.4418    -0.0541     0.2728 H       
  42 H42           -6.6090     3.9456     0.5401 H       
  43 H43           -0.6457     3.9652    -0.4931 H       
  44 H44            1.6636     4.1450    -1.4662 H       
  45 H45            1.1596     5.6154    -0.5989 H       
  46 H46           -0.2446     5.3705     1.5102 H       
  47 H47           -0.8552     3.7628     1.9694 H       
  48 H48            0.8747     4.1421     2.1477 H       
  49 H49           -2.1337    -0.8934    -2.1333 H       
  50 H50           -2.8759    -2.0630    -4.1627 H       
  51 H51           -1.7869    -5.8139    -2.3851 H       
  52 H52            4.5388     4.9863     0.6045 H       
  53 H53            4.0097     4.7175    -1.0736 H       
  54 H54            3.5057     6.1879    -0.2062 H       
  55 H55          -11.0118     2.2071     0.6273 H       
  56 H56          -11.0350    -0.3322     0.4851 H       
  57 H57           -1.7078    -5.1249     0.6458 H       
  58 H58           -0.4097    -5.7585    -0.3943 H       
  59 H59           -0.1694    -4.2408     0.5042 H       
  60 H60           -3.0657    -5.2009    -7.5217 H       
  61 H61           -4.6661    -4.3994    -7.2178 H       
  62 H62           -1.9334    -3.0321    -7.7894 H       
  63 H63           -3.5948    -2.4593    -8.2711 H       
  64 H64           -4.2850    -2.1936    -5.9309 H       
  65 H65           -2.5071    -1.9753    -5.6353 H       
@<TRIPOS>BOND
   1    1    2 ar
   2    1   12 1
   3    1    6 ar
   4    2    3 ar
   5    2   37 1
   6    3    4 ar
   7    3   17 1
   8    4    5 ar
   9    4   38 1
  10    5    6 ar
  11    5    7 1
  12    6   39 1
  13    7    8 2
  14    7    9 1
  15    8   11 1
  16    8   40 1
  17    9   10 1
  18    9   41 1
  19   10   11 2
  20   10   24 1
  21   11   42 1
  22   12   13 1
  23   13   14 1
  24   13   16 1
  25   13   43 1
  26   14   15 1
  27   14   44 1
  28   14   45 1
  29   15   25 1
  30   16   46 1
  31   16   47 1
  32   16   48 1
  33   17   18 1
  34   18   19 ar
  35   18   20 ar
  36   19   30 1
  37   19   23 ar
  38   20   21 ar
  39   20   49 1
  40   21   22 ar
  41   21   50 1
  42   22   23 ar
  43   22   31 1
  44   23   51 1
  45   24   26 2
  46   24   29 1
  47   25   52 1
  48   25   53 1
  49   25   54 1
  50   26   27 1
  51   27   28 2
  52   27   55 1
  53   28   29 1
  54   28   56 1
  55   30   57 1
  56   30   58 1
  57   30   59 1
  58   31   32 am
  59   31   33 2
  60   32   34 1
  61   32   36 1
  62   34   35 1
  63   34   60 1
  64   34   61 1
  65   35   36 1
  66   35   62 1
  67   35   63 1
  68   36   64 1
  69   36   65 1

#	End of record

