#	Name: ASD07930580
#	Creating user name:	WinNT
#	Creation time:	15. 06. 2019 21:12

#	Modifying user name:	WinNT
#	Modification time:	15. 06. 2019 21:12

#	Program:	/corina/corina34_cracker 3.40 0067  02.08.2006

@<TRIPOS>MOLECULE
ASD07930580
  55   58    0    0    0
SMALL
NO_CHARGES


@<TRIPOS>ATOM
   1 C1            -0.0502     1.4821    -0.0094 C.3     
   2 N2             0.7773    -0.3946    -2.1782 N.2     
   3 N3            -0.8979    -1.7688    -1.3026 N.pl3   
   4 C4            -0.9127    -2.8082    -0.2679 C.3     
   5 C5            -1.2240    -2.1653     1.0907 C.3     
   6 S6             0.0077    -0.8612     1.4012 S.o2    
   7 N7            -0.0234     0.0174    -0.0143 N.am    
   8 C8            -0.0231    -0.7068    -1.1980 C.2     
   9 C9             0.4557    -3.4900    -0.2090 C.3     
  10 C10           -1.9712    -3.8296    -0.5957 C.ar    
  11 N11           -2.9585    -4.0401     0.2534 N.ar    
  12 C12           -3.9099    -4.9267     0.0067 C.ar    
  13 C13           -3.8978    -5.6711    -1.1671 C.ar    
  14 C14           -2.8757    -5.4744    -2.0791 C.ar    
  15 C15           -1.8985    -4.5307    -1.7859 C.ar    
  16 O16           -0.4553     0.0438     2.3940 O.2     
  17 O17            1.3184    -1.4077     1.4540 O.2     
  18 F18           -0.8837    -4.3074    -2.6493 F       
  19 N19           -4.9340    -5.1160     0.9335 N.am    
  20 C20           -4.8971    -4.4755     2.1188 C.2     
  21 O21           -3.9269    -3.8074     2.4186 O.2     
  22 C22           -6.0370    -4.5854     3.0544 C.ar    
  23 N23           -7.0936    -5.3171     2.7199 N.ar    
  24 C24           -7.0608    -4.0349     5.1487 C.ar    
  25 C25           -5.9888    -3.9242     4.2817 C.ar    
  26 C26           -8.1277    -5.4427     3.5205 C.ar    
  27 C27           -8.1520    -4.8070     4.7591 C.ar    
  28 O28           -9.2246    -4.9430     5.5795 O.3     
  29 C29          -10.3014    -5.7566     5.1100 C.3     
  30 C30          -11.4113    -5.7907     6.1625 C.3     
  31 C31          -12.7078    -6.5172     5.7988 C.3     
  32 C32          -11.7366    -7.1417     6.8027 C.3     
  33 H33            0.9705     1.8643    -0.0190 H       
  34 H34           -0.5801     1.8388    -0.8927 H       
  35 H35           -0.5611     1.8332     0.8872 H       
  36 H36            0.7641    -0.9119    -2.9987 H       
  37 H37           -1.4993    -1.8299    -2.0612 H       
  38 H38           -2.2231    -1.7299     1.0709 H       
  39 H39           -1.1667    -2.9193     1.8757 H       
  40 H40            1.2200    -2.7506     0.0301 H       
  41 H41            0.4440    -4.2622     0.5601 H       
  42 H42            0.6779    -3.9428    -1.1753 H       
  43 H43           -4.6757    -6.3939    -1.3646 H       
  44 H44           -2.8404    -6.0385    -2.9995 H       
  45 H45           -5.6730    -5.7087     0.7253 H       
  46 H46           -7.0515    -3.5343     6.1057 H       
  47 H47           -5.1256    -3.3338     4.5516 H       
  48 H48           -8.9694    -6.0460     3.2140 H       
  49 H49          -10.6934    -5.3403     4.1819 H       
  50 H50           -9.9402    -6.7691     4.9300 H       
  51 H51          -11.4908    -4.9035     6.7908 H       
  52 H52          -13.6401    -6.1083     6.1881 H       
  53 H53          -12.7700    -6.9710     4.8097 H       
  54 H54          -11.1599    -8.0063     6.4740 H       
  55 H55          -12.0300    -7.1436     7.8524 H       
@<TRIPOS>BOND
   1    1    7 1
   2    1   33 1
   3    1   34 1
   4    1   35 1
   5    2    8 2
   6    2   36 1
   7    3    4 1
   8    3    8 1
   9    3   37 1
  10    4    5 1
  11    4    9 1
  12    4   10 1
  13    5    6 1
  14    5   38 1
  15    5   39 1
  16    6    7 am
  17    6   16 2
  18    6   17 2
  19    7    8 1
  20    9   40 1
  21    9   41 1
  22    9   42 1
  23   10   11 ar
  24   10   15 ar
  25   11   12 ar
  26   12   13 ar
  27   12   19 1
  28   13   14 ar
  29   13   43 1
  30   14   15 ar
  31   14   44 1
  32   15   18 1
  33   19   20 am
  34   19   45 1
  35   20   21 2
  36   20   22 1
  37   22   23 ar
  38   22   25 ar
  39   23   26 ar
  40   24   25 ar
  41   24   27 ar
  42   24   46 1
  43   25   47 1
  44   26   27 ar
  45   26   48 1
  46   27   28 1
  47   28   29 1
  48   29   30 1
  49   29   49 1
  50   29   50 1
  51   30   31 1
  52   30   32 1
  53   30   51 1
  54   31   32 1
  55   31   52 1
  56   31   53 1
  57   32   54 1
  58   32   55 1

#	End of record

