#	Name: ASD00170037
#	Creating user name:	WinNT
#	Creation time:	15. 06. 2019 18:31

#	Modifying user name:	WinNT
#	Modification time:	15. 06. 2019 18:31

#	Program:	/corina/corina34_cracker 3.40 0067  02.08.2006

@<TRIPOS>MOLECULE
ASD00170037
  39   42    0    0    0
SMALL
NO_CHARGES


@<TRIPOS>ATOM
   1 C1             0.5932     2.5486     1.2925 C.ar    
   2 C2             1.2024     2.2315     2.5308 C.ar    
   3 C3             0.5520     2.5759     3.7292 C.ar    
   4 C4            -0.6538     3.2094     3.7073 C.ar    
   5 C5            -1.2859     3.5388     2.5165 C.ar    
   6 C6            -0.7028     3.2239     1.2960 C.ar    
   7 C7             1.2368     2.2066     0.0971 C.ar    
   8 C8             2.4426     1.5721     0.1389 C.ar    
   9 C9             3.0444     1.2589     1.3553 C.ar    
  10 C10            2.4459     1.5771     2.5363 C.ar    
  11 C11           -1.3727     3.5735     0.0293 C.2     
  12 C12           -2.7191     4.1474     0.0475 C.2     
  13 O13           -0.8054     3.3845    -1.0322 O.2     
  14 C14           -2.9807     5.5664     0.2158 C.2     
  15 C15           -4.2872     5.8498     0.1988 C.2     
  16 S16           -5.2410     4.3922    -0.0229 S.3     
  17 C17           -3.8595     3.4003    -0.0983 C.2     
  18 N18           -3.8843     2.0313    -0.2742 N.pl3   
  19 C19           -1.8956     6.6166     0.3927 C.3     
  20 C20           -2.4950     7.9966     0.1131 C.3     
  21 C21           -3.7798     8.1619     0.9303 C.3     
  22 C22           -4.8610     7.2457     0.3507 C.3     
  23 Br23           1.3589     2.1551     5.3869 Br      
  24 H24           -1.1312     3.4619     4.6426 H       
  25 H25           -2.2419     4.0407     2.5392 H       
  26 H26            0.7804     2.4437    -0.8526 H       
  27 H27            2.9380     1.3085    -0.7839 H       
  28 H28            4.0001     0.7560     1.3619 H       
  29 H29            2.9245     1.3283     3.4719 H       
  30 H30           -4.7319     1.5599    -0.2916 H       
  31 H31           -3.0542     1.5408    -0.3804 H       
  32 H32           -1.5175     6.5827     1.4145 H       
  33 H33           -1.0823     6.4231    -0.3066 H       
  34 H34           -1.7802     8.7687     0.3981 H       
  35 H35           -2.7246     8.0857    -0.9487 H       
  36 H36           -3.5892     7.8899     1.9684 H       
  37 H37           -4.1140     9.1981     0.8788 H       
  38 H38           -5.1739     7.6206    -0.6239 H       
  39 H39           -5.7165     7.2175     1.0256 H       
@<TRIPOS>BOND
   1    1    2 ar
   2    1    7 ar
   3    1    6 ar
   4    2    3 ar
   5    2   10 ar
   6    3    4 ar
   7    3   23 1
   8    4    5 ar
   9    4   24 1
  10    5    6 ar
  11    5   25 1
  12    6   11 1
  13    7    8 ar
  14    7   26 1
  15    8    9 ar
  16    8   27 1
  17    9   10 ar
  18    9   28 1
  19   10   29 1
  20   11   12 1
  21   11   13 2
  22   12   14 1
  23   12   17 2
  24   14   15 2
  25   14   19 1
  26   15   16 1
  27   15   22 1
  28   16   17 1
  29   17   18 1
  30   18   30 1
  31   18   31 1
  32   19   20 1
  33   19   32 1
  34   19   33 1
  35   20   21 1
  36   20   34 1
  37   20   35 1
  38   21   22 1
  39   21   36 1
  40   21   37 1
  41   22   38 1
  42   22   39 1

#	End of record

