#	Name: ASD01410737
#	Creating user name:	WinNT
#	Creation time:	15. 06. 2019 19:18

#	Modifying user name:	WinNT
#	Modification time:	15. 06. 2019 19:18

#	Program:	/corina/corina34_cracker 3.40 0067  02.08.2006

@<TRIPOS>MOLECULE
ASD01410737
 132  140    0    0    0
SMALL
NO_CHARGES


@<TRIPOS>ATOM
   1 C1             2.9151     1.4725     0.0406 C.3     
   2 C2             2.1769     0.2976     0.7232 C.3     
   3 N3             1.6832     0.8620     1.9963 N.am    
   4 C4             1.4993     2.3081     1.8229 C.3     
   5 C5             1.9886     2.6654     0.4025 C.3     
   6 O6             4.2204     1.6498     0.5942 O.3     
   7 C7             0.0411     2.6602     1.9663 C.2     
   8 O8            -0.7734     1.7904     2.1921 O.2     
   9 N9            -0.3580     3.9417     1.8437 N.am    
  10 C10            3.1768    -0.8126     1.0652 C.3     
  11 C11            1.9154    -1.2822     3.2262 C.3     
  12 C12            1.4838     0.1534     3.1204 C.2     
  13 O13            0.9452     0.6834     4.0691 O.2     
  14 C14            0.6980    -2.1482     3.5562 C.3     
  15 C15            0.0367    -1.6294     4.8070 C.ar    
  16 C16           -1.7857     4.2695     1.8644 C.3     
  17 C17           -2.5925     3.7332     0.7101 C.2     
  18 N18           -1.9736     3.1145    -0.3149 N.am    
  19 O19           -3.7989     3.8582     0.7035 O.2     
  20 S20           -2.8452     2.6275    -1.6360 S.o2    
  21 C21           -3.4407     4.1713    -2.3796 C.3     
  22 C22           -2.4723     4.3499     3.2293 C.3     
  23 C23           -2.1901     5.6292     2.4376 C.3     
  24 C24           -4.3907     4.0597    -3.5737 C.3     
  25 C25           -4.9232     4.5102    -2.2119 C.3     
  26 O26           -1.8853     2.0057    -2.4794 O.2     
  27 O27           -3.9278     1.8877    -1.0884 O.2     
  28 C28           -3.9257     3.8801     3.3177 C.3     
  29 C29           -4.3874     3.9219     4.7758 C.3     
  30 C30            5.1357     2.2858    -0.1784 C.ar    
  31 C31            6.4619     2.4764     0.2752 C.ar    
  32 C32            4.8019     2.7557    -1.4215 C.ar    
  33 C33            5.7663     3.4097    -2.2005 C.ar    
  34 N34            7.0021     3.5874    -1.7651 N.ar    
  35 C35            7.3870     3.1461    -0.5634 C.ar    
  36 C36            5.3933     3.9118    -3.5395 C.2     
  37 C37            8.7038     3.3416    -0.1115 C.ar    
  38 C38            9.0724     2.8766     1.1312 C.ar    
  39 C39            8.1523     2.2125     1.9473 C.ar    
  40 C40            6.8701     2.0151     1.5350 C.ar    
  41 Cl41           9.8582     4.1636    -1.1141 Cl      
  42 O42           10.3449     3.0651     1.5687 O.3     
  43 C43           10.6663     2.5600     2.8663 C.3     
  44 N44            6.1890     4.5340    -4.3619 N.2     
  45 C45           12.1319     2.8641     3.1833 C.3     
  46 N46           12.3217     4.3179     3.2742 N.3     
  47 C47           13.6526     4.6432     3.8074 C.3     
  48 C48            5.6841     4.9089    -5.5124 C.2     
  49 C49            4.3949     4.6053    -5.7107 C.2     
  50 S50            3.8034     3.7581    -4.2827 S.3     
  51 C51            6.5034     5.6366    -6.5469 C.3     
  52 C52            7.0658     4.6299    -7.5525 C.3     
  53 C53            5.6190     6.6483    -7.2785 C.3     
  54 C54           13.8301     6.1637     3.8291 C.3     
  55 O55           12.7792     6.7503     4.6016 O.3     
  56 C56           11.4692     6.4544     4.1100 C.3     
  57 C57           11.2677     4.9369     4.0911 C.3     
  58 C58           -1.0801    -0.8201     4.7137 C.ar    
  59 C59           -1.6867    -0.3442     5.8611 C.ar    
  60 C60           -1.1767    -0.6780     7.1018 C.ar    
  61 C61           -0.0605    -1.4881     7.1952 C.ar    
  62 C62            0.5435    -1.9675     6.0479 C.ar    
  63 N63            2.5115    -1.7516     1.9774 N.am    
  64 O64            2.8931    -3.4827     0.4603 O.3     
  65 C65            2.9204    -4.9170     0.2360 C.3     
  66 C66            1.5008    -5.4772     0.3445 C.3     
  67 C67            3.4767    -5.2043    -1.1600 C.3     
  68 C68            3.8123    -5.5807     1.2871 C.3     
  69 C69            2.4501    -3.0599     1.6594 C.2     
  70 O70            1.9949    -3.8578     2.4548 O.2     
  71 H71            2.9661     1.3288    -1.0387 H       
  72 H72            1.3566    -0.0683     0.1057 H       
  73 H73            2.0879     2.8482     2.5645 H       
  74 H74            2.5496     3.5999     0.4118 H       
  75 H75            1.1493     2.7255    -0.2904 H       
  76 H76            0.3001     4.6470     1.7417 H       
  77 H77            3.4768    -1.3321     0.1552 H       
  78 H78            4.0526    -0.3833     1.5518 H       
  79 H79            2.6479    -1.3764     4.0280 H       
  80 H80           -0.0101    -2.1101     2.7283 H       
  81 H81            1.0170    -3.1784     3.7144 H       
  82 H82           -1.0175     2.9546    -0.2787 H       
  83 H83           -2.7314     4.9989    -2.3764 H       
  84 H84           -1.8618     4.1589     4.1118 H       
  85 H85           -1.3940     6.2798     2.7996 H       
  86 H86           -3.0399     6.1358     1.9800 H       
  87 H87           -4.3067     4.8142    -4.3559 H       
  88 H88           -4.6579     3.0588    -3.9125 H       
  89 H89           -5.5407     3.8056    -1.6548 H       
  90 H90           -5.1895     5.5611    -2.0982 H       
  91 H91           -4.5567     4.5360     2.7179 H       
  92 H92           -4.0013     2.8598     2.9418 H       
  93 H93           -4.3119     4.9422     5.1517 H       
  94 H94           -5.4229     3.5872     4.8388 H       
  95 H95           -3.7565     3.2660     5.3756 H       
  96 H96            3.7992     2.6224    -1.7999 H       
  97 H97            8.4613     1.8551     2.9185 H       
  98 H98            6.1692     1.5006     2.1757 H       
  99 H99           10.0273     3.0361     3.6100 H       
 100 H100          10.5063     1.4820     2.8864 H       
 101 H101          12.4015     2.4024     4.1331 H       
 102 H102          12.7654     2.4637     2.3918 H       
 103 H103          13.7445     4.2515     4.8204 H       
 104 H104          14.4180     4.1964     3.1729 H       
 105 H105           3.8186     4.8356    -6.5945 H       
 106 H106           7.3253     6.1593    -6.0577 H       
 107 H107           7.6959     3.9091    -7.0313 H       
 108 H108           6.2439     4.1072    -8.0417 H       
 109 H109           7.6584     5.1563    -8.3008 H       
 110 H110           5.2183     7.3655    -6.5621 H       
 111 H111           6.2116     7.1747    -8.0268 H       
 112 H112           4.7971     6.1256    -7.7677 H       
 113 H113          14.7926     6.4114     4.2767 H       
 114 H114          13.7917     6.5492     2.8103 H       
 115 H115          10.7242     6.9124     4.7607 H       
 116 H116          11.3621     6.8484     3.0993 H       
 117 H117          10.2923     4.7045     3.6637 H       
 118 H118          11.3215     4.5499     5.1087 H       
 119 H119          -1.4785    -0.5593     3.7443 H       
 120 H120          -2.5588     0.2886     5.7881 H       
 121 H121          -1.6502    -0.3057     7.9982 H       
 122 H122           0.3381    -1.7486     8.1645 H       
 123 H123           1.4156    -2.6004     6.1208 H       
 124 H124           0.8397    -4.9235    -0.3222 H       
 125 H125           1.5031    -6.5300     0.0620 H       
 126 H126           1.1482    -5.3773     1.3711 H       
 127 H127           4.4881    -4.8052    -1.2373 H       
 128 H128           3.4972    -6.2810    -1.3284 H       
 129 H129           2.8413    -4.7315    -1.9088 H       
 130 H130           3.3497    -5.4844     2.2693 H       
 131 H131           3.9351    -6.6364     1.0452 H       
 132 H132           4.7877    -5.0941     1.2955 H       
@<TRIPOS>BOND
   1    1    2 1
   2    1    6 1
   3    1    5 1
   4    1   71 1
   5    2    3 1
   6    2   10 1
   7    2   72 1
   8    3    4 1
   9    3   12 am
  10    4    5 1
  11    4    7 1
  12    4   73 1
  13    5   74 1
  14    5   75 1
  15    6   30 1
  16    7    8 2
  17    7    9 am
  18    9   16 1
  19    9   76 1
  20   10   63 1
  21   10   77 1
  22   10   78 1
  23   11   12 1
  24   11   14 1
  25   11   63 1
  26   11   79 1
  27   12   13 2
  28   14   15 1
  29   14   80 1
  30   14   81 1
  31   15   58 ar
  32   15   62 ar
  33   16   17 1
  34   16   22 1
  35   16   23 1
  36   17   18 am
  37   17   19 2
  38   18   20 am
  39   18   82 1
  40   20   21 1
  41   20   26 2
  42   20   27 2
  43   21   24 1
  44   21   25 1
  45   21   83 1
  46   22   23 1
  47   22   28 1
  48   22   84 1
  49   23   85 1
  50   23   86 1
  51   24   25 1
  52   24   87 1
  53   24   88 1
  54   25   89 1
  55   25   90 1
  56   28   29 1
  57   28   91 1
  58   28   92 1
  59   29   93 1
  60   29   94 1
  61   29   95 1
  62   30   31 ar
  63   30   32 ar
  64   31   35 ar
  65   31   40 ar
  66   32   33 ar
  67   32   96 1
  68   33   34 ar
  69   33   36 1
  70   34   35 ar
  71   35   37 ar
  72   36   44 2
  73   36   50 1
  74   37   38 ar
  75   37   41 1
  76   38   39 ar
  77   38   42 1
  78   39   40 ar
  79   39   97 1
  80   40   98 1
  81   42   43 1
  82   43   45 1
  83   43   99 1
  84   43  100 1
  85   44   48 1
  86   45   46 1
  87   45  101 1
  88   45  102 1
  89   46   47 1
  90   46   57 1
  91   47   54 1
  92   47  103 1
  93   47  104 1
  94   48   49 2
  95   48   51 1
  96   49   50 1
  97   49  105 1
  98   51   52 1
  99   51   53 1
 100   51  106 1
 101   52  107 1
 102   52  108 1
 103   52  109 1
 104   53  110 1
 105   53  111 1
 106   53  112 1
 107   54   55 1
 108   54  113 1
 109   54  114 1
 110   55   56 1
 111   56   57 1
 112   56  115 1
 113   56  116 1
 114   57  117 1
 115   57  118 1
 116   58   59 ar
 117   58  119 1
 118   59   60 ar
 119   59  120 1
 120   60   61 ar
 121   60  121 1
 122   61   62 ar
 123   61  122 1
 124   62  123 1
 125   63   69 am
 126   64   65 1
 127   64   69 1
 128   65   66 1
 129   65   67 1
 130   65   68 1
 131   66  124 1
 132   66  125 1
 133   66  126 1
 134   67  127 1
 135   67  128 1
 136   67  129 1
 137   68  130 1
 138   68  131 1
 139   68  132 1
 140   69   70 2

#	End of record

