#	Name: ASD04840033
#	Creating user name:	WinNT
#	Creation time:	15. 06. 2019 20:52

#	Modifying user name:	WinNT
#	Modification time:	15. 06. 2019 20:52

#	Program:	/corina/corina34_cracker 3.40 0067  02.08.2006

@<TRIPOS>MOLECULE
ASD04840033
  34   36    0    0    0
SMALL
NO_CHARGES


@<TRIPOS>ATOM
   1 C1            -0.0184     1.5028     0.0103 C.2     
   2 C2             0.0021    -0.0041     0.0020 C.3     
   3 O3             1.0197     2.1211     0.0037 O.2     
   4 O4            -1.1898     2.1580     0.0194 O.3     
   5 N5             1.3897    -0.4735    -0.0138 N.pl3   
   6 C6             0.9181    -4.0112    -0.0283 C.ar    
   7 N7             2.1392    -4.4938    -0.0422 N.ar    
   8 C8             3.2035    -3.6814    -0.0480 C.ar    
   9 C9             3.0016    -2.2971    -0.0389 C.ar    
  10 C10            1.6608    -1.8295    -0.0236 C.ar    
  11 N11            0.6740    -2.7132    -0.0194 N.ar    
  12 C12            4.2495    -1.5640    -0.0472 C.2     
  13 C13            5.3419    -2.3280    -0.0617 C.2     
  14 S14            4.9256    -4.0313    -0.0664 S.3     
  15 C15            6.7253    -1.8066    -0.0720 C.ar    
  16 C16            7.8067    -2.6887    -0.0870 C.ar    
  17 C17            9.3165    -0.8299    -0.0921 C.ar    
  18 C18            6.9554    -0.4300    -0.0725 C.ar    
  19 C19            9.0951    -2.1957    -0.0969 C.ar    
  20 C20            8.2488     0.0500    -0.0826 C.ar    
  21 C21           10.7266    -0.2984    -0.1026 C.3     
  22 H22           -0.4983    -0.3791     0.8948 H       
  23 H23           -0.5153    -0.3696    -0.8850 H       
  24 H24           -1.1523     3.1243     0.0245 H       
  25 H25            2.1184     0.1668    -0.0173 H       
  26 H26            0.0853    -4.6987    -0.0287 H       
  27 H27            4.2922    -0.4849    -0.0425 H       
  28 H28            7.6353    -3.7550    -0.0904 H       
  29 H29            6.1229     0.2579    -0.0654 H       
  30 H30            9.9328    -2.8772    -0.1082 H       
  31 H31            8.4283     1.1150    -0.0789 H       
  32 H32           11.0570    -0.1651    -1.1327 H       
  33 H33           10.7575     0.6599     0.4158 H       
  34 H34           11.3852    -1.0057     0.4016 H       
@<TRIPOS>BOND
   1    1    2 1
   2    1    3 2
   3    1    4 1
   4    2    5 1
   5    2   22 1
   6    2   23 1
   7    4   24 1
   8    5   10 1
   9    5   25 1
  10    6    7 ar
  11    6   11 ar
  12    6   26 1
  13    7    8 ar
  14    8    9 ar
  15    8   14 1
  16    9   10 ar
  17    9   12 1
  18   10   11 ar
  19   12   13 2
  20   12   27 1
  21   13   14 1
  22   13   15 1
  23   15   16 ar
  24   15   18 ar
  25   16   19 ar
  26   16   28 1
  27   17   19 ar
  28   17   20 ar
  29   17   21 1
  30   18   20 ar
  31   18   29 1
  32   19   30 1
  33   20   31 1
  34   21   32 1
  35   21   33 1
  36   21   34 1

#	End of record

