#	Name: ASD08150629
#	Creating user name:	WinNT
#	Creation time:	15. 06. 2019 21:16

#	Modifying user name:	WinNT
#	Modification time:	15. 06. 2019 21:16

#	Program:	/corina/corina34_cracker 3.40 0067  02.08.2006

@<TRIPOS>MOLECULE
ASD08150629
  64   69    0    0    0
SMALL
NO_CHARGES


@<TRIPOS>ATOM
   1 N1             1.2722     1.7720    -1.2378 N.am    
   2 C2             1.1062     0.4353    -1.2577 C.2     
   3 C3             2.2083    -0.4285    -1.4190 C.2     
   4 C4             3.4597     0.0792    -1.5570 C.2     
   5 C5             3.6380     1.4850    -1.5366 C.ar    
   6 C6             4.9141     2.0635    -1.6759 C.ar    
   7 N7             5.0756     3.3608    -1.6567 N.ar    
   8 C8             4.0477     4.2098    -1.5053 C.ar    
   9 C9             2.7280     3.7161    -1.3586 C.ar    
  10 C10            2.5193     2.3169    -1.3745 C.ar    
  11 C11            1.6639     4.6092    -1.2005 C.ar    
  12 C12            1.9130     5.9720    -1.1891 C.ar    
  13 C13            3.2216     6.4531    -1.3349 C.ar    
  14 C14            4.2669     5.5970    -1.4900 C.ar    
  15 O15           -0.0125    -0.0338    -1.1340 O.2     
  16 C16            0.7898     6.9264    -1.0224 C.ar    
  17 C17            0.1598     2.6095    -1.0819 C.ar    
  18 C18           -0.6713     2.8689    -2.1644 C.ar    
  19 C19           -1.7673     3.6934    -2.0109 C.ar    
  20 C20           -2.0395     4.2640    -0.7736 C.ar    
  21 C21           -1.2084     4.0044     0.3086 C.ar    
  22 C22           -0.1151     3.1754     0.1561 C.ar    
  23 N23           -3.1494     5.0996    -0.6181 N.3     
  24 C24            0.9906     8.1535    -0.3812 C.ar    
  25 C25           -0.0859     9.0099    -0.2500 C.ar    
  26 C26           -1.3229     8.6276    -0.7551 C.ar    
  27 N27           -1.4799     7.4594    -1.3561 N.ar    
  28 C28           -0.4783     6.6164    -1.5070 C.ar    
  29 C29           -4.0168     4.6257     0.4679 C.3     
  30 C30           -3.8949     5.2241    -1.8771 C.3     
  31 C31           -5.0132     6.2553    -1.7095 C.3     
  32 C32           -5.9486     5.8080    -0.5828 C.3     
  33 C33           -5.1387     5.6390     0.7056 C.3     
  34 C34           -1.5034     4.6231     1.6507 C.3     
  35 F35           -0.3078     4.8021     2.3547 F       
  36 F36           -2.1259     5.8624     1.4662 F       
  37 F37           -2.3505     3.7793     2.3772 F       
  38 O38           -2.3840     9.4635    -0.6297 O.3     
  39 C39           -3.6587     8.9586    -1.0325 C.3     
  40 H40            2.0568    -1.4977    -1.4326 H       
  41 H41            4.3073    -0.5787    -1.6802 H       
  42 H42            5.7753     1.4239    -1.8006 H       
  43 H43            0.6553     4.2395    -1.0885 H       
  44 H44            3.4020     7.5179    -1.3243 H       
  45 H45            5.2687     5.9850    -1.6006 H       
  46 H46           -0.4595     2.4257    -3.1262 H       
  47 H47           -2.4132     3.8954    -2.8526 H       
  48 H48            0.5285     2.9700     0.9986 H       
  49 H49            1.9632     8.4247     0.0022 H       
  50 H50            0.0326     9.9651     0.2398 H       
  51 H51           -0.6447     5.6716    -2.0031 H       
  52 H52           -4.4488     3.6632     0.1940 H       
  53 H53           -3.4295     4.5137     1.3793 H       
  54 H54           -3.2190     5.5469    -2.6690 H       
  55 H55           -4.3274     4.2588    -2.1401 H       
  56 H56           -4.5804     7.2241    -1.4600 H       
  57 H57           -5.5761     6.3361    -2.6394 H       
  58 H58           -6.7220     6.5609    -0.4309 H       
  59 H59           -6.4115     4.8578    -0.8494 H       
  60 H60           -5.7914     5.2795     1.5011 H       
  61 H61           -4.7080     6.5981     0.9930 H       
  62 H62           -4.3441     9.7904    -1.1953 H       
  63 H63           -3.5493     8.3917    -1.9571 H       
  64 H64           -4.0551     8.3086    -0.2525 H       
@<TRIPOS>BOND
   1    1    2 am
   2    1   10 1
   3    1   17 1
   4    2    3 1
   5    2   15 2
   6    3    4 2
   7    3   40 1
   8    4    5 1
   9    4   41 1
  10    5    6 ar
  11    5   10 ar
  12    6    7 ar
  13    6   42 1
  14    7    8 ar
  15    8    9 ar
  16    8   14 ar
  17    9   10 ar
  18    9   11 ar
  19   11   12 ar
  20   11   43 1
  21   12   13 ar
  22   12   16 1
  23   13   14 ar
  24   13   44 1
  25   14   45 1
  26   16   24 ar
  27   16   28 ar
  28   17   18 ar
  29   17   22 ar
  30   18   19 ar
  31   18   46 1
  32   19   20 ar
  33   19   47 1
  34   20   21 ar
  35   20   23 1
  36   21   22 ar
  37   21   34 1
  38   22   48 1
  39   23   29 1
  40   23   30 1
  41   24   25 ar
  42   24   49 1
  43   25   26 ar
  44   25   50 1
  45   26   27 ar
  46   26   38 1
  47   27   28 ar
  48   28   51 1
  49   29   33 1
  50   29   52 1
  51   29   53 1
  52   30   31 1
  53   30   54 1
  54   30   55 1
  55   31   32 1
  56   31   56 1
  57   31   57 1
  58   32   33 1
  59   32   58 1
  60   32   59 1
  61   33   60 1
  62   33   61 1
  63   34   35 1
  64   34   36 1
  65   34   37 1
  66   38   39 1
  67   39   62 1
  68   39   63 1
  69   39   64 1

#	End of record

