#	Name: ASD01948295
#	Creating user name:	WinNT
#	Creation time:	15. 06. 2019 20:14

#	Modifying user name:	WinNT
#	Modification time:	15. 06. 2019 20:14

#	Program:	/corina/corina34_cracker 3.40 0067  02.08.2006

@<TRIPOS>MOLECULE
ASD01948295
  53   55    0    0    0
SMALL
NO_CHARGES


@<TRIPOS>ATOM
   1 C1             1.4267     7.6389     1.0214 C.ar    
   2 C2             1.5506     7.8527    -0.3402 C.ar    
   3 C3             2.1666     6.9065    -1.1387 C.ar    
   4 C4             2.6608     5.7435    -0.5797 C.ar    
   5 C5             2.5394     5.5246     0.7856 C.ar    
   6 C6             1.9194     6.4779     1.5873 C.ar    
   7 N7             2.7651     2.3567     0.0919 N.am    
   8 C8             3.5664     3.3618     0.5469 C.2     
   9 N9             3.0386     4.3478     1.3542 N.pl3   
  10 C10            3.2587     1.3843    -0.6968 C.2     
  11 C11            4.6071     1.3875    -1.0645 C.2     
  12 C12            5.4348     2.3967    -0.6141 C.2     
  13 C13            4.9060     3.3977     0.2035 C.2     
  14 N14            5.7303     4.4363     0.6747 N.am    
  15 I15            0.8026     9.6136    -1.1938 I       
  16 F16            1.7993     6.2693     2.9167 F       
  17 C17            1.3503     2.3317     0.4714 C.3     
  18 S18            7.3444     4.4450     0.3047 S.o2    
  19 O19            7.3987     3.9824    -1.0378 O.2     
  20 O20            7.7752     5.7554     0.6460 O.2     
  21 C21            8.0731     3.2223     1.4293 C.3     
  22 C22            5.1545     0.2955    -1.9471 C.3     
  23 C23            7.4651     3.0980     2.8277 C.3     
  24 C24            7.2258     2.0002     1.7892 C.3     
  25 C25            9.5838     3.0204     1.2953 C.3     
  26 C26            9.9158     2.5880    -0.1343 C.3     
  27 O27            9.7026     3.6846    -1.0253 O.3     
  28 O28            2.5234     0.4927    -1.0936 O.2     
  29 C29           11.3796     2.1487    -0.2073 C.3     
  30 O30           11.6585     1.6358    -1.5116 O.3     
  31 H31            0.9488     8.3816     1.6430 H       
  32 H32            2.2611     7.0766    -2.2010 H       
  33 H33            3.1410     5.0051    -1.2048 H       
  34 H34            3.0134     4.2253     2.3161 H       
  35 H35            6.4788     2.4113    -0.8902 H       
  36 H36            5.3530     5.1472     1.2162 H       
  37 H37            0.7789     2.9561    -0.2153 H       
  38 H38            0.9798     1.3076     0.4252 H       
  39 H39            1.2397     2.7126     1.4866 H       
  40 H40            4.3566    -0.4037    -2.1972 H       
  41 H41            5.5537     0.7336    -2.8618 H       
  42 H42            5.9491    -0.2332    -1.4205 H       
  43 H43            8.1412     2.8720     3.6523 H       
  44 H44            6.6271     3.7509     3.0720 H       
  45 H45            6.2305     1.9309     1.3502 H       
  46 H46            7.7446     1.0520     1.9304 H       
  47 H47           10.0967     3.9555     1.5204 H       
  48 H48            9.9107     2.2496     1.9933 H       
  49 H49            9.2722     1.7563    -0.4210 H       
  50 H50           10.2438     4.4616    -0.8293 H       
  51 H51           12.0258     3.0034    -0.0071 H       
  52 H52           11.5634     1.3724     0.5354 H       
  53 H53           12.5707     1.3377    -1.6302 H       
@<TRIPOS>BOND
   1    1    2 ar
   2    1    6 ar
   3    1   31 1
   4    2    3 ar
   5    2   15 1
   6    3    4 ar
   7    3   32 1
   8    4    5 ar
   9    4   33 1
  10    5    6 ar
  11    5    9 1
  12    6   16 1
  13    7    8 1
  14    7   10 am
  15    7   17 1
  16    8    9 1
  17    8   13 2
  18    9   34 1
  19   10   11 1
  20   10   28 2
  21   11   12 2
  22   11   22 1
  23   12   13 1
  24   12   35 1
  25   13   14 1
  26   14   18 am
  27   14   36 1
  28   17   37 1
  29   17   38 1
  30   17   39 1
  31   18   19 2
  32   18   20 2
  33   18   21 1
  34   21   23 1
  35   21   25 1
  36   21   24 1
  37   22   40 1
  38   22   41 1
  39   22   42 1
  40   23   24 1
  41   23   43 1
  42   23   44 1
  43   24   45 1
  44   24   46 1
  45   25   26 1
  46   25   47 1
  47   25   48 1
  48   26   27 1
  49   26   29 1
  50   26   49 1
  51   27   50 1
  52   29   30 1
  53   29   51 1
  54   29   52 1
  55   30   53 1

#	End of record

