#	Name: ASD01913733
#	Creating user name:	WinNT
#	Creation time:	15. 06. 2019 20:02

#	Modifying user name:	WinNT
#	Modification time:	15. 06. 2019 20:02

#	Program:	/corina/corina34_cracker 3.40 0067  02.08.2006

@<TRIPOS>MOLECULE
ASD01913733
  41   42    0    0    0
SMALL
NO_CHARGES


@<TRIPOS>ATOM
   1 O1            -0.0163     1.3508     0.0095 O.3     
   2 C2             0.0021    -0.0041     0.0020 C.ar    
   3 N3             1.1629    -0.6408    -0.0125 N.ar    
   4 C4             1.2330    -1.9556    -0.0202 C.ar    
   5 C5             0.0719    -2.7293    -0.0137 C.ar    
   6 C6            -1.1744    -2.0856     0.0016 C.ar    
   7 C7            -1.1994    -0.7064     0.0154 C.ar    
   8 C8             0.1538    -4.2032    -0.0234 C.2     
   9 N9             1.3565    -4.8112    -0.0386 N.am    
  10 O10           -0.8637    -4.8686    -0.0177 O.2     
  11 C11            1.2480     2.0168     0.0010 C.3     
  12 C12            1.0303     3.5079     0.0111 C.ar    
  13 C13            0.9419     4.1851     1.2128 C.ar    
  14 C14            0.7418     5.5532     1.2236 C.ar    
  15 C15            0.6298     6.2450     0.0328 C.ar    
  16 C16            0.7186     5.5677    -1.1718 C.ar    
  17 C17            0.9247     4.1988    -1.1815 C.ar    
  18 F18            0.6093     6.2431    -2.3368 F       
  19 C19            1.4378    -6.2739    -0.0482 C.3     
  20 C20            2.7772    -6.7142     0.5460 C.3     
  21 C21            2.8362    -6.3152     2.0218 C.3     
  22 C22            1.3268    -6.7814    -1.4873 C.3     
  23 H23            2.1983    -2.4397    -0.0320 H       
  24 H24           -2.0916    -2.6557     0.0069 H       
  25 H25           -2.1409    -0.1774     0.0278 H       
  26 H26            2.1684    -4.2803    -0.0432 H       
  27 H27            1.8174     1.7267     0.8840 H       
  28 H28            1.8004     1.7363    -0.8958 H       
  29 H29            1.0289     3.6451     2.1441 H       
  30 H30            0.6725     6.0812     2.1632 H       
  31 H31            0.4728     7.3135     0.0415 H       
  32 H32            0.9941     3.6695    -2.1203 H       
  33 H33            0.6231    -6.6870     0.5466 H       
  34 H34            2.8757    -7.7962     0.4579 H       
  35 H35            3.5909    -6.2302     0.0059 H       
  36 H36            2.0225    -6.7993     2.5619 H       
  37 H37            3.7904    -6.6289     2.4451 H       
  38 H38            2.7378    -5.2333     2.1099 H       
  39 H39            1.3872    -7.8697    -1.4944 H       
  40 H40            0.3726    -6.4678    -1.9106 H       
  41 H41            2.1415    -6.3684    -2.0821 H       
@<TRIPOS>BOND
   1    1    2 1
   2    1   11 1
   3    2    3 ar
   4    2    7 ar
   5    3    4 ar
   6    4    5 ar
   7    4   23 1
   8    5    6 ar
   9    5    8 1
  10    6    7 ar
  11    6   24 1
  12    7   25 1
  13    8    9 am
  14    8   10 2
  15    9   19 1
  16    9   26 1
  17   11   12 1
  18   11   27 1
  19   11   28 1
  20   12   13 ar
  21   12   17 ar
  22   13   14 ar
  23   13   29 1
  24   14   15 ar
  25   14   30 1
  26   15   16 ar
  27   15   31 1
  28   16   17 ar
  29   16   18 1
  30   17   32 1
  31   19   20 1
  32   19   22 1
  33   19   33 1
  34   20   21 1
  35   20   34 1
  36   20   35 1
  37   21   36 1
  38   21   37 1
  39   21   38 1
  40   22   39 1
  41   22   40 1
  42   22   41 1

#	End of record

