#	Name: ASD01882104
#	Creating user name:	WinNT
#	Creation time:	15. 06. 2019 19:43

#	Modifying user name:	WinNT
#	Modification time:	15. 06. 2019 19:43

#	Program:	/corina/corina34_cracker 3.40 0067  02.08.2006

@<TRIPOS>MOLECULE
ASD01882104
  17   17    0    0    0
SMALL
NO_CHARGES


@<TRIPOS>ATOM
   1 C1            -0.0184     1.5028     0.0103 C.2     
   2 C2             0.0021    -0.0041     0.0020 C.3     
   3 O3             1.0191     2.1207     0.0037 O.2     
   4 C4            -0.7132    -0.5094    -1.2244 C.ar    
   5 C5            -1.8834    -1.2335    -1.0929 C.ar    
   6 C6            -2.5394    -1.6971    -2.2179 C.ar    
   7 C7            -2.0255    -1.4362    -3.4744 C.ar    
   8 C8            -0.8558    -0.7113    -3.6059 C.ar    
   9 C9            -0.2021    -0.2441    -2.4811 C.ar    
  10 Br10           1.8643    -0.6341    -0.0191 Br      
  11 H11           -0.9609     2.0300     0.0176 H       
  12 H12           -0.4983    -0.3791     0.8948 H       
  13 H13           -2.2848    -1.4373    -0.1112 H       
  14 H14           -3.4533    -2.2634    -2.1151 H       
  15 H15           -2.5377    -1.7990    -4.3533 H       
  16 H16           -0.4542    -0.5078    -4.5876 H       
  17 H17            0.7098     0.3254    -2.5840 H       
@<TRIPOS>BOND
   1    1    2 1
   2    1    3 2
   3    1   11 1
   4    2    4 1
   5    2   10 1
   6    2   12 1
   7    4    5 ar
   8    4    9 ar
   9    5    6 ar
  10    5   13 1
  11    6    7 ar
  12    6   14 1
  13    7    8 ar
  14    7   15 1
  15    8    9 ar
  16    8   16 1
  17    9   17 1

#	End of record

