#	Name: ASD05143295
#	Creating user name:	WinNT
#	Creation time:	15. 06. 2019 20:57

#	Modifying user name:	WinNT
#	Modification time:	15. 06. 2019 20:57

#	Program:	/corina/corina34_cracker 3.40 0067  02.08.2006

@<TRIPOS>MOLECULE
ASD05143295
  41   43    0    0    0
SMALL
NO_CHARGES


@<TRIPOS>ATOM
   1 C1            -0.3041     1.4804     0.1214 C.2     
   2 N2            -0.0229     0.2387    -0.2206 N.2     
   3 S3            -1.5195    -0.5584    -0.3307 S.3     
   4 C4            -2.4509     0.8276     0.0913 C.2     
   5 N5            -1.5750     1.7881     0.2903 N.2     
   6 N6            -3.8264     0.9112     0.2028 N.pl3   
   7 C7            -4.4187     2.0809     0.6888 C.ar    
   8 C8            -5.7210     2.4029     0.3286 C.ar    
   9 C9            -6.3035     3.5588     0.8100 C.ar    
  10 C10           -5.5908     4.3963     1.6501 C.ar    
  11 C11           -4.2930     4.0782     2.0103 C.ar    
  12 C12           -3.7079     2.9202     1.5372 C.ar    
  13 C13            1.2199    -0.2983    -0.4424 C.ar    
  14 C14            2.0564     0.2492    -1.4159 C.ar    
  15 C15            1.6561    -1.3921     0.3095 C.ar    
  16 C16            2.9081    -1.9268     0.0811 C.ar    
  17 C17            3.7299    -1.3814    -0.8894 C.ar    
  18 C18            3.3055    -0.2953    -1.6337 C.ar    
  19 C19            0.7650     2.4878     0.3141 C.ar    
  20 C20            0.5268     3.8281     0.0114 C.ar    
  21 C21            2.0117     2.1004     0.8044 C.ar    
  22 C22            3.0035     3.0432     0.9818 C.ar    
  23 C23            2.7631     4.3704     0.6743 C.ar    
  24 C24            1.5265     4.7617     0.1929 C.ar    
  25 Cl25          -6.3260     5.8488     2.2530 Cl      
  26 Cl26           0.6265    -2.0766     1.5281 Cl      
  27 H27           -4.3806     0.1583    -0.0561 H       
  28 H28           -6.2774     1.7501    -0.3277 H       
  29 H29           -7.3160     3.8097     0.5302 H       
  30 H30           -3.7389     4.7339     2.6656 H       
  31 H31           -2.6952     2.6722     1.8189 H       
  32 H32            1.7267     1.0971    -1.9980 H       
  33 H33            3.2470    -2.7723     0.6613 H       
  34 H34            4.7087    -1.8031    -1.0639 H       
  35 H35            3.9521     0.1255    -2.3896 H       
  36 H36           -0.4381     4.1347    -0.3648 H       
  37 H37            2.2005     1.0646     1.0452 H       
  38 H38            3.9693     2.7445     1.3617 H       
  39 H39            3.5425     5.1048     0.8147 H       
  40 H40            1.3448     5.7992    -0.0457 H       
  41 Br41           9.7087    10.8488     7.6656 Br      
@<TRIPOS>BOND
   1    1    2 2
   2    1   19 1
   3    1    5 1
   4    2    3 1
   5    2   13 1
   6    3    4 1
   7    4    5 2
   8    4    6 1
   9    6    7 1
  10    6   27 1
  11    7    8 ar
  12    7   12 ar
  13    8    9 ar
  14    8   28 1
  15    9   10 ar
  16    9   29 1
  17   10   11 ar
  18   10   25 1
  19   11   12 ar
  20   11   30 1
  21   12   31 1
  22   13   14 ar
  23   13   15 ar
  24   14   18 ar
  25   14   32 1
  26   15   16 ar
  27   15   26 1
  28   16   17 ar
  29   16   33 1
  30   17   18 ar
  31   17   34 1
  32   18   35 1
  33   19   20 ar
  34   19   21 ar
  35   20   24 ar
  36   20   36 1
  37   21   22 ar
  38   21   37 1
  39   22   23 ar
  40   22   38 1
  41   23   24 ar
  42   23   39 1
  43   24   40 1

#	End of record

