#	Name: ASD01410849
#	Creating user name:	WinNT
#	Creation time:	15. 06. 2019 19:18

#	Modifying user name:	WinNT
#	Modification time:	15. 06. 2019 19:18

#	Program:	/corina/corina34_cracker 3.40 0067  02.08.2006

@<TRIPOS>MOLECULE
ASD01410849
 127  135    0    0    0
SMALL
NO_CHARGES


@<TRIPOS>ATOM
   1 C1             0.3172     2.4489     2.1676 C.3     
   2 C2             0.4221     1.0638     2.8472 C.3     
   3 N3             0.8182     1.3644     4.2384 N.am    
   4 C4             0.3363     2.7088     4.5783 C.3     
   5 C5            -0.3094     3.2996     3.3060 C.3     
   6 O6             1.6088     2.9436     1.8083 O.3     
   7 C7            -0.6881     2.6227     5.6802 C.2     
   8 O8            -0.9919     1.5435     6.1428 O.2     
   9 N9            -1.2668     3.7449     6.1517 N.am    
  10 C10            1.5574     0.2579     2.2060 C.3     
  11 N11            1.8303    -0.8990     3.0682 N.am    
  12 C12            2.1504    -0.7165     4.4821 C.3     
  13 C13            1.5346     0.5428     5.0240 C.2     
  14 O14            1.6874     0.8230     6.1941 O.2     
  15 C15            1.6212    -1.9138     5.2741 C.3     
  16 C16            1.8369    -1.6718     6.7694 C.3     
  17 C17            0.1268    -2.0888     4.9961 C.3     
  18 C18           -2.3449     3.6538     7.1394 C.3     
  19 C19           -3.6187     3.0115     6.6538 C.2     
  20 N20           -3.7584     2.6916     5.3520 N.am    
  21 O21           -4.5182     2.7824     7.4344 O.2     
  22 S22           -5.2015     2.1007     4.7948 S.o2    
  23 C23           -6.3674     3.4730     5.0140 C.3     
  24 C24           -1.9482     3.4214     8.5987 C.3     
  25 C25           -2.4698     4.7907     8.1557 C.3     
  26 C26           -7.8401     3.2065     4.6960 C.3     
  27 C27           -7.3868     3.3595     6.1493 C.3     
  28 O28           -4.9710     1.8580     3.4138 O.2     
  29 O29           -5.5112     1.0365     5.6840 O.2     
  30 C30           -2.8616     2.5682     9.4406 C.2     
  31 C31           -2.4096     1.4666     9.9870 C.2     
  32 C32            1.6591     3.8762     0.8250 C.ar    
  33 C33            2.8968     4.3995     0.3832 C.ar    
  34 C34            0.5127     4.3325     0.2290 C.ar    
  35 C35            0.5917     5.2964    -0.7854 C.ar    
  36 N36            1.7536     5.7827    -1.1879 N.ar    
  37 C37            2.9050     5.3721    -0.6469 C.ar    
  38 C38           -0.6523     5.7802    -1.4201 C.2     
  39 S39           -2.2820     5.2523    -1.0086 S.3     
  40 C40            4.1340     5.8972    -1.0831 C.ar    
  41 C41            5.3047     5.4560    -0.5075 C.ar    
  42 C42            5.2842     4.4926     0.5050 C.ar    
  43 C43            4.1072     3.9716     0.9478 C.ar    
  44 Cl44           4.1756     7.0938    -2.3401 Cl      
  45 O45            6.4929     5.9626    -0.9288 O.3     
  46 C46            7.6722     5.4652    -0.2932 C.3     
  47 N47           -0.7200     6.6693    -2.3695 N.2     
  48 C48           -1.9141     6.9786    -2.8137 C.2     
  49 C49           -2.9370     6.3390    -2.2321 C.2     
  50 C50           -2.1229     7.9924    -3.9090 C.3     
  51 C51           -2.2226     7.2743    -5.2564 C.3     
  52 C52           -3.4159     8.7672    -3.6472 C.3     
  53 C53            1.7846    -2.1424     2.5500 C.2     
  54 C54            8.9024     6.1471    -0.8953 C.3     
  55 N55            8.8686     7.5822    -0.5833 N.3     
  56 C56           10.1413     8.2281    -0.9359 C.3     
  57 O57            1.5823    -2.3145     1.2301 O.3     
  58 O58            1.9261    -3.1079     3.2740 O.2     
  59 C59           10.0418     9.7290    -0.6509 C.3     
  60 O60            9.6968     9.9264     0.7229 O.3     
  61 C61            8.4623     9.3111     1.1007 C.3     
  62 C62            8.5458     7.8059     0.8334 C.3     
  63 C63            1.5448    -3.6814     0.7417 C.3     
  64 C64            0.6227    -3.7773    -0.4864 C.3     
  65 C65            1.4992    -4.2646    -1.6586 C.3     
  66 C66            2.6800    -4.9950    -0.9720 C.3     
  67 C67            2.9495    -4.1138     0.2729 C.3     
  68 H68           -0.3405     2.4103     1.2993 H       
  69 H69           -0.5278     0.5306     2.8104 H       
  70 H70            1.1719     3.3334     4.8942 H       
  71 H71           -0.0445     4.3508     3.1920 H       
  72 H72           -1.3919     3.1743     3.3295 H       
  73 H73           -0.9694     4.6129     5.8370 H       
  74 H74            1.2544    -0.0830     1.2160 H       
  75 H75            2.4505     0.8776     2.1263 H       
  76 H76            3.2329    -0.6632     4.5989 H       
  77 H77            2.1550    -2.8145     4.9710 H       
  78 H78            1.3031    -0.7711     7.0724 H       
  79 H79            1.4598    -2.5248     7.3336 H       
  80 H80            2.9015    -1.5472     6.9674 H       
  81 H81           -0.4070    -1.1881     5.2992 H       
  82 H82           -0.0269    -2.2611     3.9309 H       
  83 H83           -0.2502    -2.9418     5.5603 H       
  84 H84           -3.0135     2.8075     4.7415 H       
  85 H85           -5.9749     4.4642     4.7868 H       
  86 H86           -0.8852     3.3363     8.8239 H       
  87 H87           -1.7497     5.6063     8.0897 H       
  88 H88           -3.4733     5.0739     8.4734 H       
  89 H89           -8.4165     4.0224     4.2600 H       
  90 H90           -8.1084     2.2065     4.3551 H       
  91 H91           -7.3569     2.4602     6.7645 H       
  92 H92           -7.6650     4.2761     6.6694 H       
  93 H93           -3.8887     2.8648     9.5935 H       
  94 H94           -1.3825     1.1700     9.8340 H       
  95 H95           -3.0642     0.8551    10.5903 H       
  96 H96           -0.4485     3.9504     0.5397 H       
  97 H97            6.2133     4.1598     0.9435 H       
  98 H98            4.1056     3.2278     1.7308 H       
  99 H99            7.6259     5.6768     0.7751 H       
 100 H100           7.7416     4.3884    -0.4476 H       
 101 H101          -3.9824     6.4677    -2.4706 H       
 102 H102          -1.2816     8.6852    -3.9280 H       
 103 H103          -3.0639     6.5814    -5.2374 H       
 104 H104          -2.3736     8.0075    -6.0486 H       
 105 H105          -1.3014     6.7223    -5.4429 H       
 106 H106          -3.3448     9.2788    -2.6873 H       
 107 H107          -3.5669     9.5005    -4.4394 H       
 108 H108          -4.2571     8.0744    -3.6282 H       
 109 H109           9.8054     5.7050    -0.4743 H       
 110 H110           8.9009     6.0102    -1.9766 H       
 111 H111          10.9456     7.7970    -0.3399 H       
 112 H112          10.3478     8.0716    -1.9947 H       
 113 H113          11.0015    10.2030    -0.8569 H       
 114 H114           9.2735    10.1700    -1.2861 H       
 115 H115           8.2797     9.4828     2.1615 H       
 116 H116           7.6481     9.7399     0.5164 H       
 117 H117           7.5877     7.3412     1.0662 H       
 118 H118           9.3247     7.3681     1.4577 H       
 119 H119           1.1908    -4.3488     1.5275 H       
 120 H120          -0.1783    -4.4919    -0.2970 H       
 121 H121           0.2033    -2.7977    -0.7158 H       
 122 H122           0.9406    -4.9539    -2.2918 H       
 123 H123           1.8616    -3.4179    -2.2416 H       
 124 H124           2.3909    -6.0034    -0.6762 H       
 125 H125           3.5523    -5.0180    -1.6252 H       
 126 H126           3.5461    -3.2427     0.0019 H       
 127 H127           3.4493    -4.6930     1.0494 H       
@<TRIPOS>BOND
   1    1    2 1
   2    1    6 1
   3    1    5 1
   4    1   68 1
   5    2    3 1
   6    2   10 1
   7    2   69 1
   8    3    4 1
   9    3   13 am
  10    4    5 1
  11    4    7 1
  12    4   70 1
  13    5   71 1
  14    5   72 1
  15    6   32 1
  16    7    8 2
  17    7    9 am
  18    9   18 1
  19    9   73 1
  20   10   11 1
  21   10   74 1
  22   10   75 1
  23   11   12 1
  24   11   53 am
  25   12   13 1
  26   12   15 1
  27   12   76 1
  28   13   14 2
  29   15   16 1
  30   15   17 1
  31   15   77 1
  32   16   78 1
  33   16   79 1
  34   16   80 1
  35   17   81 1
  36   17   82 1
  37   17   83 1
  38   18   19 1
  39   18   24 1
  40   18   25 1
  41   19   20 am
  42   19   21 2
  43   20   22 am
  44   20   84 1
  45   22   23 1
  46   22   28 2
  47   22   29 2
  48   23   26 1
  49   23   27 1
  50   23   85 1
  51   24   25 1
  52   24   30 1
  53   24   86 1
  54   25   87 1
  55   25   88 1
  56   26   27 1
  57   26   89 1
  58   26   90 1
  59   27   91 1
  60   27   92 1
  61   30   31 2
  62   30   93 1
  63   31   94 1
  64   31   95 1
  65   32   33 ar
  66   32   34 ar
  67   33   37 ar
  68   33   43 ar
  69   34   35 ar
  70   34   96 1
  71   35   36 ar
  72   35   38 1
  73   36   37 ar
  74   37   40 ar
  75   38   47 2
  76   38   39 1
  77   39   49 1
  78   40   41 ar
  79   40   44 1
  80   41   42 ar
  81   41   45 1
  82   42   43 ar
  83   42   97 1
  84   43   98 1
  85   45   46 1
  86   46   54 1
  87   46   99 1
  88   46  100 1
  89   47   48 1
  90   48   49 2
  91   48   50 1
  92   49  101 1
  93   50   51 1
  94   50   52 1
  95   50  102 1
  96   51  103 1
  97   51  104 1
  98   51  105 1
  99   52  106 1
 100   52  107 1
 101   52  108 1
 102   53   57 1
 103   53   58 2
 104   54   55 1
 105   54  109 1
 106   54  110 1
 107   55   56 1
 108   55   62 1
 109   56   59 1
 110   56  111 1
 111   56  112 1
 112   57   63 1
 113   59   60 1
 114   59  113 1
 115   59  114 1
 116   60   61 1
 117   61   62 1
 118   61  115 1
 119   61  116 1
 120   62  117 1
 121   62  118 1
 122   63   64 1
 123   63   67 1
 124   63  119 1
 125   64   65 1
 126   64  120 1
 127   64  121 1
 128   65   66 1
 129   65  122 1
 130   65  123 1
 131   66   67 1
 132   66  124 1
 133   66  125 1
 134   67  126 1
 135   67  127 1

#	End of record

