#	Name: ASD01903118
#	Creating user name:	WinNT
#	Creation time:	15. 06. 2019 19:54

#	Modifying user name:	WinNT
#	Modification time:	15. 06. 2019 19:54

#	Program:	/corina/corina34_cracker 3.40 0067  02.08.2006

@<TRIPOS>MOLECULE
ASD01903118
  55   59    0    0    0
SMALL
NO_CHARGES


@<TRIPOS>ATOM
   1 C1            -0.2166     1.4850    -0.2207 C.3     
   2 C2            -0.0946    -0.0414    -0.0364 C.3     
   3 C3             1.2184     1.9392    -0.3768 C.2     
   4 N4             2.0279     0.8758    -0.2982 N.am    
   5 C5             1.3964    -0.2892    -0.1077 C.2     
   6 O6             1.9340    -1.3712    -0.0077 O.2     
   7 O7             1.5779     3.0844    -0.5465 O.2     
   8 C8             3.4237     0.9742    -0.4071 C.ar    
   9 C9             4.1959     1.1733     0.7288 C.ar    
  10 C10            5.5691     1.2706     0.6221 C.ar    
  11 C11            6.1783     1.1688    -0.6218 C.ar    
  12 C12            5.4059     0.9690    -1.7591 C.ar    
  13 C13            4.0328     0.8665    -1.6515 C.ar    
  14 Cl14           3.0669     0.6169    -3.0723 Cl      
  15 N15            7.5699     1.2679    -0.7296 N.am    
  16 C16            8.1231     1.8202    -1.8276 C.2     
  17 C17            9.5949     1.8206    -1.9949 C.ar    
  18 N18           10.3637     1.2756    -1.0603 N.ar    
  19 C19           11.6742     1.2551    -1.1703 C.ar    
  20 C20           12.3043     1.8064    -2.2743 C.ar    
  21 C21           11.5391     2.3862    -3.2745 C.ar    
  22 C22           10.1604     2.3880    -3.1349 C.ar    
  23 O23            7.4144     2.3178    -2.6803 O.2     
  24 C24           -0.6380    -0.4586     1.3058 C.ar    
  25 C25           -0.8439     2.1175     0.9947 C.ar    
  26 C26           -1.9422    -0.9037     1.4155 C.ar    
  27 C27           -2.4407    -1.2864     2.6467 C.ar    
  28 C28           -1.6349    -1.2244     3.7682 C.ar    
  29 C29           -0.3305    -0.7802     3.6584 C.ar    
  30 C30            0.1693    -0.4016     2.4264 C.ar    
  31 C31           -2.1829     2.4609     0.9819 C.ar    
  32 C32           -2.7583     3.0412     2.0968 C.ar    
  33 C33           -1.9949     3.2777     3.2247 C.ar    
  34 C34           -0.6561     2.9335     3.2379 C.ar    
  35 C35           -0.0817     2.3492     2.1245 C.ar    
  36 H36           -0.7924     1.7184    -1.1163 H       
  37 H37           -0.6097    -0.5672    -0.8403 H       
  38 H38            3.7226     1.2525     1.6963 H       
  39 H39            6.1696     1.4262     1.5062 H       
  40 H40            5.8794     0.8899    -2.7265 H       
  41 H41            8.1364     0.9392    -0.0142 H       
  42 H42           12.2673     0.8027    -0.3893 H       
  43 H43           13.3811     1.7851    -2.3547 H       
  44 H44           12.0067     2.8228    -4.1446 H       
  45 H45            9.5336     2.8306    -3.8949 H       
  46 H46           -2.5717    -0.9521     0.5392 H       
  47 H47           -3.4598    -1.6335     2.7325 H       
  48 H48           -2.0246    -1.5227     4.7303 H       
  49 H49            0.2989    -0.7315     4.5347 H       
  50 H50            1.1884    -0.0546     2.3407 H       
  51 H51           -2.7793     2.2762     0.1007 H       
  52 H52           -3.8042     3.3102     2.0865 H       
  53 H53           -2.4443     3.7317     4.0955 H       
  54 H54           -0.0596     3.1185     4.1190 H       
  55 H55            0.9642     2.0802     2.1347 H       
@<TRIPOS>BOND
   1    1    2 1
   2    1    3 1
   3    1   25 1
   4    1   36 1
   5    2    5 1
   6    2   24 1
   7    2   37 1
   8    3    4 am
   9    3    7 2
  10    4    5 am
  11    4    8 1
  12    5    6 2
  13    8    9 ar
  14    8   13 ar
  15    9   10 ar
  16    9   38 1
  17   10   11 ar
  18   10   39 1
  19   11   12 ar
  20   11   15 1
  21   12   13 ar
  22   12   40 1
  23   13   14 1
  24   15   16 am
  25   15   41 1
  26   16   17 1
  27   16   23 2
  28   17   18 ar
  29   17   22 ar
  30   18   19 ar
  31   19   20 ar
  32   19   42 1
  33   20   21 ar
  34   20   43 1
  35   21   22 ar
  36   21   44 1
  37   22   45 1
  38   24   26 ar
  39   24   30 ar
  40   25   31 ar
  41   25   35 ar
  42   26   27 ar
  43   26   46 1
  44   27   28 ar
  45   27   47 1
  46   28   29 ar
  47   28   48 1
  48   29   30 ar
  49   29   49 1
  50   30   50 1
  51   31   32 ar
  52   31   51 1
  53   32   33 ar
  54   32   52 1
  55   33   34 ar
  56   33   53 1
  57   34   35 ar
  58   34   54 1
  59   35   55 1

#	End of record

