#	Name: ASD08178310
#	Creating user name:	WinNT
#	Creation time:	15. 06. 2019 21:18

#	Modifying user name:	WinNT
#	Modification time:	15. 06. 2019 21:18

#	Program:	/corina/corina34_cracker 3.40 0067  02.08.2006

@<TRIPOS>MOLECULE
ASD08178310
  65   67    0    0    0
SMALL
NO_CHARGES


@<TRIPOS>ATOM
   1 N1            -0.0168     1.3903     0.0097 N.am    
   2 C2            -0.2173     0.0103     0.0234 C.ar    
   3 C3             0.8683    -0.8558    -0.0922 C.ar    
   4 N4            -1.4398    -0.4831     0.1519 N.ar    
   5 N5            -1.6667    -1.7463     0.1691 N.ar    
   6 C6            -0.7003    -2.6367     0.0604 C.ar    
   7 C7             0.6159    -2.2190    -0.0730 C.ar    
   8 C8            -1.0249    -4.1081     0.0869 C.3     
   9 C9            -1.8117    -4.4339     1.3580 C.3     
  10 C10           -2.1413    -5.9277     1.3850 C.3     
  11 C11           -2.9281    -6.2535     2.6561 C.3     
  12 C12           -3.2527    -7.7249     2.6827 C.2     
  13 N13           -2.5217    -8.6592     3.2027 N.2     
  14 N14           -2.9695    -9.8370     3.1230 N.2     
  15 C15           -4.1135   -10.0085     2.5322 C.2     
  16 S16           -4.7000    -8.4832     2.0179 S.3     
  17 N17           -4.7581   -11.2276     2.3521 N.am    
  18 C18           -4.1936   -12.3625     2.8101 C.2     
  19 C19           -4.8921   -13.6835     2.6149 C.3     
  20 O20           -3.1235   -12.3206     3.3794 O.2     
  21 C21           -4.9708   -13.9974     1.1431 C.ar    
  22 C22           -1.0750     2.2250     0.0164 C.2     
  23 O23           -0.8831     3.5544     0.1084 O.3     
  24 O24           -2.2021     1.7778    -0.0606 O.2     
  25 C25           -6.1051   -13.6667     0.4255 C.ar    
  26 C26           -6.1774   -13.9547    -0.9245 C.ar    
  27 C27           -5.1151   -14.5730    -1.5572 C.ar    
  28 C28           -3.9805   -14.9030    -0.8398 C.ar    
  29 C29           -3.9065   -14.6110     0.5094 C.ar    
  30 O30           -4.1598   -14.7128     3.2830 O.3     
  31 C31           -4.9709   -15.7906     3.7547 C.3     
  32 C32           -2.0684     4.3930     0.1099 C.3     
  33 C33           -2.9541     4.0221     1.3010 C.3     
  34 C34           -1.6540     5.8617     0.2203 C.3     
  35 C35           -2.8462     4.1790    -1.1902 C.3     
  36 H36            0.8842     1.7494    -0.0007 H       
  37 H37            1.8746    -0.4770    -0.1938 H       
  38 H38            1.4198    -2.9345    -0.1633 H       
  39 H39           -1.6242    -4.3638    -0.7869 H       
  40 H40           -0.0999    -4.6845     0.0744 H       
  41 H41           -1.2125    -4.1782     2.2319 H       
  42 H42           -2.7368    -3.8575     1.3705 H       
  43 H43           -2.7406    -6.1834     0.5112 H       
  44 H44           -1.2163    -6.5042     1.3725 H       
  45 H45           -2.3288    -5.9978     3.5299 H       
  46 H46           -3.8531    -5.6771     2.6686 H       
  47 H47           -5.6139   -11.2610     1.8967 H       
  48 H48           -5.8989   -13.6268     3.0287 H       
  49 H49           -6.9350   -13.1836     0.9198 H       
  50 H50           -7.0638   -13.6969    -1.4850 H       
  51 H51           -5.1719   -14.7987    -2.6118 H       
  52 H52           -3.1507   -15.3864    -1.3340 H       
  53 H53           -3.0200   -14.8688     1.0698 H       
  54 H54           -4.3410   -16.5298     4.2495 H       
  55 H55           -5.7072   -15.4088     4.4620 H       
  56 H56           -5.4833   -16.2554     2.9123 H       
  57 H57           -2.4000     4.1746     2.2272 H       
  58 H58           -3.8440     4.6516     1.3021 H       
  59 H59           -3.2494     2.9758     1.2223 H       
  60 H60           -1.0230     6.1260    -0.6283 H       
  61 H61           -2.5438     6.4912     0.2214 H       
  62 H62           -1.0999     6.0142     1.1465 H       
  63 H63           -3.1414     3.1327    -1.2689 H       
  64 H64           -3.7360     4.8085    -1.1891 H       
  65 H65           -2.2152     4.4432    -2.0388 H       
@<TRIPOS>BOND
   1    1    2 1
   2    1   22 am
   3    1   36 1
   4    2    3 ar
   5    2    4 ar
   6    3    7 ar
   7    3   37 1
   8    4    5 ar
   9    5    6 ar
  10    6    7 ar
  11    6    8 1
  12    7   38 1
  13    8    9 1
  14    8   39 1
  15    8   40 1
  16    9   10 1
  17    9   41 1
  18    9   42 1
  19   10   11 1
  20   10   43 1
  21   10   44 1
  22   11   12 1
  23   11   45 1
  24   11   46 1
  25   12   13 2
  26   12   16 1
  27   13   14 1
  28   14   15 2
  29   15   16 1
  30   15   17 1
  31   17   18 am
  32   17   47 1
  33   18   19 1
  34   18   20 2
  35   19   21 1
  36   19   30 1
  37   19   48 1
  38   21   25 ar
  39   21   29 ar
  40   22   23 1
  41   22   24 2
  42   23   32 1
  43   25   26 ar
  44   25   49 1
  45   26   27 ar
  46   26   50 1
  47   27   28 ar
  48   27   51 1
  49   28   29 ar
  50   28   52 1
  51   29   53 1
  52   30   31 1
  53   31   54 1
  54   31   55 1
  55   31   56 1
  56   32   33 1
  57   32   34 1
  58   32   35 1
  59   33   57 1
  60   33   58 1
  61   33   59 1
  62   34   60 1
  63   34   61 1
  64   34   62 1
  65   35   63 1
  66   35   64 1
  67   35   65 1

#	End of record

