#	Name: ASD03240798
#	Creating user name:	WinNT
#	Creation time:	15. 06. 2019 20:35

#	Modifying user name:	WinNT
#	Modification time:	15. 06. 2019 20:35

#	Program:	/corina/corina34_cracker 3.40 0067  02.08.2006

@<TRIPOS>MOLECULE
ASD03240798
  62   68    0    0    0
SMALL
NO_CHARGES


@<TRIPOS>ATOM
   1 C1            -0.0470     1.2460     0.1175 C.3     
   2 C2             0.1513    -0.2777     0.0552 C.3     
   3 C3             1.5491    -0.0412     0.6511 C.3     
   4 C4             1.4840     1.3693     0.0418 C.3     
   5 O5            -0.7216     1.7825    -1.0222 O.3     
   6 C6            -0.6363     1.7336     1.4426 C.3     
   7 C7            -0.7319     3.2452     1.6595 C.3     
   8 C8            -1.9987     2.4284     1.3967 C.3     
   9 C9             2.6191    -0.9120     0.0447 C.ar    
  10 C10            3.7104    -1.2927     0.8050 C.ar    
  11 C11            4.6937    -2.0895     0.2554 C.ar    
  12 C12            4.5855    -2.5116    -1.0697 C.ar    
  13 C13            3.4825    -2.1247    -1.8311 C.ar    
  14 C14            2.5033    -1.3320    -1.2684 C.ar    
  15 C15           10.1785    -4.5124    -1.9790 C.2     
  16 N16            9.9139    -5.4764    -2.8784 N.2     
  17 C17            8.6979    -5.7265    -3.2901 C.2     
  18 C18            7.5906    -4.9350    -2.7575 C.ar    
  19 C19            7.8743    -3.9245    -1.8139 C.ar    
  20 N20            9.1904    -3.7330    -1.4388 N.pl3   
  21 C21            6.2693    -5.1550    -3.1594 C.ar    
  22 C22            5.2769    -4.3548    -2.6019 C.ar    
  23 C23            5.6374    -3.3664    -1.6660 C.ar    
  24 N24            6.9007    -3.1872    -1.3094 N.ar    
  25 N25            9.7909    -2.8358    -0.5473 N.2     
  26 C26           11.0848    -3.0508    -0.5380 C.2     
  27 C27           11.3757    -4.0847    -1.4199 C.2     
  28 C28            3.8577    -4.5401    -2.9889 C.ar    
  29 C29            3.5006    -4.5912    -4.3353 C.ar    
  30 C30            2.1781    -4.7643    -4.6896 C.ar    
  31 C31            1.2076    -4.8871    -3.7114 C.ar    
  32 C32            1.5562    -4.8373    -2.3737 C.ar    
  33 C33            2.8762    -4.6698    -2.0075 C.ar    
  34 C34           12.0926    -2.2955     0.2897 C.3     
  35 Cl35          12.9518    -4.7286    -1.7588 Cl      
  36 N36            1.5713    -0.0472     2.1199 N.3     
  37 H37           -0.5163    -0.8323     0.7146 H       
  38 H38            0.1708    -0.6744    -0.9599 H       
  39 H39            1.8678     1.4229    -0.9770 H       
  40 H40            1.8922     2.1444     0.6903 H       
  41 H41           -0.3465     1.5035    -1.8687 H       
  42 H42           -0.4163     1.1134     2.3115 H       
  43 H43           -0.5752     3.6193     2.6712 H       
  44 H44           -0.3749     3.8922     0.8582 H       
  45 H45           -2.4751     2.5381     0.4225 H       
  46 H46           -2.6754     2.2653     2.2355 H       
  47 H47            3.7930    -0.9653     1.8309 H       
  48 H48            5.5454    -2.3855     0.8497 H       
  49 H49            3.3932    -2.4483    -2.8576 H       
  50 H50            1.6467    -1.0354    -1.8555 H       
  51 H51            8.5145    -6.5069    -4.0138 H       
  52 H52            6.0268    -5.9218    -3.8803 H       
  53 H53            4.2573    -4.4950    -5.0998 H       
  54 H54            1.9001    -4.8037    -5.7324 H       
  55 H55            0.1739    -5.0222    -3.9933 H       
  56 H56            0.7943    -4.9333    -1.6143 H       
  57 H57            3.1477    -4.6351    -0.9628 H       
  58 H58           12.2176    -2.7920     1.2520 H       
  59 H59           13.0483    -2.2720    -0.2339 H       
  60 H60           11.7407    -1.2764     0.4497 H       
  61 H61            2.5187    -0.0574     2.4672 H       
  62 H62            1.0581     0.7376     2.4925 H       
@<TRIPOS>BOND
   1    1    2 1
   2    1    4 1
   3    1    5 1
   4    1    6 1
   5    2    3 1
   6    2   37 1
   7    2   38 1
   8    3    4 1
   9    3    9 1
  10    3   36 1
  11    4   39 1
  12    4   40 1
  13    5   41 1
  14    6    7 1
  15    6    8 1
  16    6   42 1
  17    7    8 1
  18    7   43 1
  19    7   44 1
  20    8   45 1
  21    8   46 1
  22    9   10 ar
  23    9   14 ar
  24   10   11 ar
  25   10   47 1
  26   11   12 ar
  27   11   48 1
  28   12   13 ar
  29   12   23 1
  30   13   14 ar
  31   13   49 1
  32   14   50 1
  33   15   16 1
  34   15   20 1
  35   15   27 2
  36   16   17 2
  37   17   18 1
  38   17   51 1
  39   18   19 ar
  40   18   21 ar
  41   19   20 1
  42   19   24 ar
  43   20   25 1
  44   21   22 ar
  45   21   52 1
  46   22   23 ar
  47   22   28 1
  48   23   24 ar
  49   25   26 2
  50   26   27 1
  51   26   34 1
  52   27   35 1
  53   28   29 ar
  54   28   33 ar
  55   29   30 ar
  56   29   53 1
  57   30   31 ar
  58   30   54 1
  59   31   32 ar
  60   31   55 1
  61   32   33 ar
  62   32   56 1
  63   33   57 1
  64   34   58 1
  65   34   59 1
  66   34   60 1
  67   36   61 1
  68   36   62 1

#	End of record

