#	Name: ASD02560015
#	Creating user name:	WinNT
#	Creation time:	15. 06. 2019 20:24

#	Modifying user name:	WinNT
#	Modification time:	15. 06. 2019 20:24

#	Program:	/corina/corina34_cracker 3.40 0067  02.08.2006

@<TRIPOS>MOLECULE
ASD02560015
  37   40    0    0    0
SMALL
NO_CHARGES


@<TRIPOS>ATOM
   1 C1            -0.0170     1.4001     0.0097 C.ar    
   2 C2             0.0021    -0.0041     0.0020 C.ar    
   3 N3            -1.1500    -0.6677     0.0098 N.ar    
   4 C4            -2.3016    -0.0167     0.0247 C.ar    
   5 N5            -2.3660     1.3088     0.0320 N.ar    
   6 C6            -1.2637     2.0497     0.0302 C.ar    
   7 N7             1.2730     1.8174    -0.0003 N.2     
   8 C8             2.0624     0.7835    -0.0134 C.2     
   9 N9             1.3256    -0.3648    -0.0126 N.pl3   
  10 N10           -1.3407     3.4311     0.0384 N.pl3   
  11 C11           -2.6482     4.0918     0.0491 C.3     
  12 C12           -2.7209     5.5050     0.6310 C.3     
  13 C13           -2.8407     5.2925    -0.8795 C.3     
  14 C14            1.8514    -1.7322    -0.0240 C.3     
  15 O15            3.1815    -1.7490    -0.5765 O.3     
  16 C16            4.0323    -1.6022     0.5765 C.3     
  17 C17            3.2517    -2.1752     1.7372 C.2     
  18 C18            1.9883    -2.2505     1.3894 C.2     
  19 C19            5.3322    -2.3839     0.3768 C.3     
  20 O20            6.0872    -1.7905    -0.6815 O.3     
  21 N21           -3.4807    -0.7437     0.0324 N.pl3   
  22 H22            3.1415     0.8276    -0.0232 H       
  23 H23           -0.5290     3.9621     0.0370 H       
  24 H24           -3.5046     3.4368     0.2095 H       
  25 H25           -3.6252     5.7798     1.1738 H       
  26 H26           -1.7959     5.9431     1.0058 H       
  27 H27           -1.9944     5.5908    -1.4983 H       
  28 H28           -3.8238     5.4275    -1.3303 H       
  29 H29            1.1953    -2.3824    -0.6027 H       
  30 H30            4.2492    -0.5486     0.7524 H       
  31 H31            3.6634    -2.4721     2.6905 H       
  32 H32            1.1836    -2.6200     2.0077 H       
  33 H33            5.9157    -2.3599     1.2971 H       
  34 H34            5.0989    -3.4176     0.1213 H       
  35 H35            6.9260    -2.2356    -0.8637 H       
  36 H36           -3.4527    -1.7133     0.0270 H       
  37 H37           -4.3343    -0.2831     0.0434 H       
@<TRIPOS>BOND
   1    1    2 ar
   2    1    7 1
   3    1    6 ar
   4    2    3 ar
   5    2    9 1
   6    3    4 ar
   7    4    5 ar
   8    4   21 1
   9    5    6 ar
  10    6   10 1
  11    7    8 2
  12    8    9 1
  13    8   22 1
  14    9   14 1
  15   10   11 1
  16   10   23 1
  17   11   12 1
  18   11   13 1
  19   11   24 1
  20   12   13 1
  21   12   25 1
  22   12   26 1
  23   13   27 1
  24   13   28 1
  25   14   15 1
  26   14   18 1
  27   14   29 1
  28   15   16 1
  29   16   17 1
  30   16   19 1
  31   16   30 1
  32   17   18 2
  33   17   31 1
  34   18   32 1
  35   19   20 1
  36   19   33 1
  37   19   34 1
  38   20   35 1
  39   21   36 1
  40   21   37 1

#	End of record

