#	Name: ASD01208444
#	Creating user name:	WinNT
#	Creation time:	15. 06. 2019 19:09

#	Modifying user name:	WinNT
#	Modification time:	15. 06. 2019 19:09

#	Program:	/corina/corina34_cracker 3.40 0067  02.08.2006

@<TRIPOS>MOLECULE
ASD01208444
  40   41    0    0    0
SMALL
NO_CHARGES


@<TRIPOS>ATOM
   1 C1            -0.0179     1.4698     0.0101 C.2     
   2 C2             0.0021    -0.0041     0.0020 C.ar    
   3 C3             1.2223    -0.6988    -0.0134 C.ar    
   4 C4             1.1954    -2.0666    -0.0200 C.ar    
   5 C5            -0.0376    -2.7279    -0.0113 C.ar    
   6 N6            -1.1788    -2.0431     0.0028 N.ar    
   7 C7            -1.1932    -0.7283     0.0154 C.ar    
   8 O8             1.0261     2.0917     0.0035 O.2     
   9 O9            -1.1940     2.1277     0.0193 O.3     
  10 N10            1.0220    -5.0411    -0.0332 N.am    
  11 C11           -0.0731    -4.2008    -0.0183 C.2     
  12 C12           -1.1937    -4.9778    -0.0113 C.2     
  13 C13           -0.7771    -6.3184    -0.0221 C.2     
  14 C14            0.5742    -6.3333    -0.0353 C.2     
  15 C15            2.3128    -4.6539    -0.0489 C.2     
  16 O16            2.9075    -4.4809     0.9956 O.2     
  17 O17            2.9426    -4.4590    -1.2219 O.3     
  18 C18            4.3323    -4.0425    -1.1627 C.3     
  19 C19            5.1522    -5.1046    -0.4275 C.3     
  20 C20            4.8747    -3.8725    -2.5832 C.3     
  21 C21            4.4345    -2.7115    -0.4151 C.3     
  22 Br22           1.6622    -7.8799    -0.0537 Br      
  23 C23           -1.1377     3.5786     0.0269 C.3     
  24 H24            2.1612    -0.1651    -0.0202 H       
  25 H25            2.1166    -2.6303    -0.0321 H       
  26 H26           -2.1369    -0.2035     0.0318 H       
  27 H27           -2.2147    -4.6262     0.0007 H       
  28 H28           -1.4223    -7.1845    -0.0196 H       
  29 H29            5.0794    -6.0529    -0.9601 H       
  30 H30            6.1954    -4.7920    -0.3831 H       
  31 H31            4.7658    -5.2257     0.5845 H       
  32 H32            4.2906    -3.1158    -3.1070 H       
  33 H33            5.9180    -3.5599    -2.5388 H       
  34 H34            4.8019    -4.8208    -3.1158 H       
  35 H35            4.0481    -2.8326     0.5968 H       
  36 H36            5.4777    -2.3988    -0.3707 H       
  37 H37            3.8504    -1.9548    -0.9390 H       
  38 H38           -0.6060     3.9169     0.9162 H       
  39 H39           -0.6144     3.9266    -0.8637 H       
  40 H40           -2.1505     3.9815     0.0339 H       
@<TRIPOS>BOND
   1    1    2 1
   2    1    8 2
   3    1    9 1
   4    2    3 ar
   5    2    7 ar
   6    3    4 ar
   7    3   24 1
   8    4    5 ar
   9    4   25 1
  10    5    6 ar
  11    5   11 1
  12    6    7 ar
  13    7   26 1
  14    9   23 1
  15   10   11 1
  16   10   14 1
  17   10   15 am
  18   11   12 2
  19   12   13 1
  20   12   27 1
  21   13   14 2
  22   13   28 1
  23   14   22 1
  24   15   16 2
  25   15   17 1
  26   17   18 1
  27   18   19 1
  28   18   21 1
  29   18   20 1
  30   19   29 1
  31   19   30 1
  32   19   31 1
  33   20   32 1
  34   20   33 1
  35   20   34 1
  36   21   35 1
  37   21   36 1
  38   21   37 1
  39   23   38 1
  40   23   39 1
  41   23   40 1

#	End of record

