#	Name: ASD02408012
#	Creating user name:	WinNT
#	Creation time:	15. 06. 2019 20:20

#	Modifying user name:	WinNT
#	Modification time:	15. 06. 2019 20:20

#	Program:	/corina/corina34_cracker 3.40 0067  02.08.2006

@<TRIPOS>MOLECULE
ASD02408012
  47   49    0    0    0
SMALL
NO_CHARGES


@<TRIPOS>ATOM
   1 C1             0.5282     0.6444    -0.2428 C.ar    
   2 C2             0.7962    -0.6877    -0.4934 C.ar    
   3 C3             1.6570     1.6405    -0.1748 C.3     
   4 C4             1.7479     2.3867    -1.4809 C.2     
   5 N5             2.6989     3.3295    -1.6274 N.am    
   6 N6             0.9058     2.0943    -2.4345 N.2     
   7 C7             0.9397     2.7241    -3.6159 C.2     
   8 C8             1.9032     3.7225    -3.8349 C.2     
   9 C9             2.8093     4.0168    -2.7837 C.2     
  10 N10            0.0425     2.3970    -4.6028 N.pl3   
  11 O11            3.6652     4.8738    -2.9202 O.2     
  12 C12           -0.2393    -1.6018    -0.5562 C.ar    
  13 C13           -1.5435    -1.1843    -0.3686 C.ar    
  14 C14           -1.8140     0.1477    -0.1173 C.ar    
  15 C15           -0.7785     1.0648    -0.0598 C.ar    
  16 C16            0.4688     2.3204    -6.0067 C.3     
  17 C17           -1.3607     2.1110    -4.2740 C.3     
  18 C18           -1.7360     0.7462    -4.8598 C.3     
  19 C19           -1.4271     0.7364    -6.3587 C.3     
  20 C20            0.0692     0.9529    -6.5695 C.3     
  21 C21           -1.8329    -0.6133    -6.9540 C.3     
  22 C22           -1.6407    -0.5799    -8.4715 C.3     
  23 O23           -2.0196    -1.8406    -9.0275 O.3     
  24 F24           -1.0416     2.3669     0.1861 F       
  25 C25            1.9723     4.4189    -5.0842 C.1     
  26 N26            2.0270     4.9715    -6.0753 N.1     
  27 H27            1.8148    -1.0150    -0.6405 H       
  28 H28            1.4705     2.3463     0.6347 H       
  29 H29            2.5942     1.1155     0.0097 H       
  30 H30            3.3086     3.5160    -0.8964 H       
  31 H31           -0.0289    -2.6428    -0.7525 H       
  32 H32           -2.3516    -1.8991    -0.4186 H       
  33 H33           -2.8331     0.4737     0.0290 H       
  34 H34           -0.0192     3.1084    -6.5803 H       
  35 H35            1.5508     2.4384    -6.0670 H       
  36 H36           -1.4855     2.0908    -3.1913 H       
  37 H37           -2.0010     2.8815    -4.7034 H       
  38 H38           -1.1581    -0.0339    -4.3642 H       
  39 H39           -2.7998     0.5645    -4.7064 H       
  40 H40           -1.9865     1.5326    -6.8499 H       
  41 H41            0.2944     0.9229    -7.6356 H       
  42 H42            0.6260     0.1682    -6.0574 H       
  43 H43           -1.2118    -1.4005    -6.5263 H       
  44 H44           -2.8798    -0.8116    -6.7246 H       
  45 H45           -2.2617     0.2072    -8.8991 H       
  46 H46           -0.5937    -0.3816    -8.7009 H       
  47 H47           -1.9234    -1.8915    -9.9884 H       
@<TRIPOS>BOND
   1    1    2 ar
   2    1    3 1
   3    1   15 ar
   4    2   12 ar
   5    2   27 1
   6    3    4 1
   7    3   28 1
   8    3   29 1
   9    4    5 1
  10    4    6 2
  11    5    9 am
  12    5   30 1
  13    6    7 1
  14    7    8 2
  15    7   10 1
  16    8    9 1
  17    8   25 1
  18    9   11 2
  19   10   16 1
  20   10   17 1
  21   12   13 ar
  22   12   31 1
  23   13   14 ar
  24   13   32 1
  25   14   15 ar
  26   14   33 1
  27   15   24 1
  28   16   20 1
  29   16   34 1
  30   16   35 1
  31   17   18 1
  32   17   36 1
  33   17   37 1
  34   18   19 1
  35   18   38 1
  36   18   39 1
  37   19   20 1
  38   19   21 1
  39   19   40 1
  40   20   41 1
  41   20   42 1
  42   21   22 1
  43   21   43 1
  44   21   44 1
  45   22   23 1
  46   22   45 1
  47   22   46 1
  48   23   47 1
  49   25   26 3

#	End of record

