#	Name: ASD00170392
#	Creating user name:	WinNT
#	Creation time:	15. 06. 2019 18:32

#	Modifying user name:	WinNT
#	Modification time:	15. 06. 2019 18:32

#	Program:	/corina/corina34_cracker 3.40 0067  02.08.2006

@<TRIPOS>MOLECULE
ASD00170392
  30   32    0    0    0
SMALL
NO_CHARGES


@<TRIPOS>ATOM
   1 C1             0.4464     0.6426     0.2038 C.2     
   2 C2             0.6515    -0.6575     0.5501 C.2     
   3 S3            -0.8864    -1.5000     0.5233 S.3     
   4 C4            -1.6985    -0.0091     0.0543 C.2     
   5 N5            -0.8267     0.9449    -0.0471 N.2     
   6 N6            -3.0589     0.1233    -0.1727 N.pl3   
   7 C7             1.6200     1.5655     0.1351 C.ar    
   8 C8             2.8951     1.0021     0.1107 C.ar    
   9 C9             3.0847    -0.4900     0.0955 C.3     
  10 C10            2.0080    -1.2117     0.9034 C.3     
  11 C11            1.4462     2.9419     0.1012 C.ar    
  12 C12            2.5538     3.7665     0.0618 C.ar    
  13 C13            3.8269     3.2126     0.0592 C.ar    
  14 C14            3.9969     1.8359     0.0842 C.ar    
  15 O15            4.9158     4.0258     0.0320 O.3     
  16 C16            5.5601     4.1427    -1.1400 C.2     
  17 O17            5.1130     3.6145    -2.1305 O.2     
  18 C18            6.8410     4.9325    -1.2201 C.3     
  19 H19           -3.6437    -0.6444    -0.0756 H       
  20 H20           -3.4264     0.9837    -0.4288 H       
  21 H21            3.0492    -0.8413    -0.9357 H       
  22 H22            4.0620    -0.7274     0.5158 H       
  23 H23            2.1937    -1.0653     1.9674 H       
  24 H24            2.0355    -2.2769     0.6742 H       
  25 H25            0.4526     3.3651     0.1051 H       
  26 H26            2.4298     4.8390     0.0328 H       
  27 H27            4.9916     1.4153     0.0825 H       
  28 H28            7.0846     5.3306    -0.2351 H       
  29 H29            7.6479     4.2828    -1.5591 H       
  30 H30            6.7170     5.7554    -1.9241 H       
@<TRIPOS>BOND
   1    1    2 2
   2    1    7 1
   3    1    5 1
   4    2    3 1
   5    2   10 1
   6    3    4 1
   7    4    5 2
   8    4    6 1
   9    6   19 1
  10    6   20 1
  11    7    8 ar
  12    7   11 ar
  13    8    9 1
  14    8   14 ar
  15    9   10 1
  16    9   21 1
  17    9   22 1
  18   10   23 1
  19   10   24 1
  20   11   12 ar
  21   11   25 1
  22   12   13 ar
  23   12   26 1
  24   13   14 ar
  25   13   15 1
  26   14   27 1
  27   15   16 1
  28   16   17 2
  29   16   18 1
  30   18   28 1
  31   18   29 1
  32   18   30 1

#	End of record

