#	Name: ASD02560533
#	Creating user name:	WinNT
#	Creation time:	15. 06. 2019 20:25

#	Modifying user name:	WinNT
#	Modification time:	15. 06. 2019 20:25

#	Program:	/corina/corina34_cracker 3.40 0067  02.08.2006

@<TRIPOS>MOLECULE
ASD02560533
  57   60    0    0    0
SMALL
NO_CHARGES


@<TRIPOS>ATOM
   1 N1            -0.0228     1.2816    -0.0579 N.2     
   2 N2            -0.0039    -0.0033    -0.0528 N.2     
   3 C3             1.1936     1.7485    -0.0792 C.2     
   4 N4             2.0424     0.6731    -0.0883 N.pl3   
   5 C5             1.2367    -0.4327    -0.0708 C.2     
   6 S6             1.7641    -2.1139    -0.0716 S.3     
   7 C7             0.1577    -2.9473    -0.0428 C.3     
   8 C8             0.3660    -4.4398    -0.0394 C.2     
   9 O9             1.4900    -4.8952    -0.0550 O.2     
  10 N10           -0.6966    -5.2686    -0.0191 N.am    
  11 C11            3.4417     0.7001    -0.1114 C.ar    
  12 C12            4.1558     0.7189     1.0663 C.ar    
  13 C13            5.5474     0.7452     1.0547 C.ar    
  14 C14            6.2404     0.7536    -0.1173 C.ar    
  15 C15            5.5494     0.7349    -1.3406 C.ar    
  16 C16            4.1329     0.7022    -1.3409 C.ar    
  17 C17            6.2379     0.7429    -2.5662 C.ar    
  18 C18            5.5369     0.7244    -3.7326 C.ar    
  19 C19            4.1436     0.6977    -3.7318 C.ar    
  20 C20            3.4439     0.6838    -2.5640 C.ar    
  21 C21            7.7470     0.7832    -0.1024 C.3     
  22 C22           -0.5092    -6.6453    -0.1332 C.ar    
  23 C23           -1.3532    -7.5194     0.5454 C.ar    
  24 C24           -1.1714    -8.8791     0.4348 C.ar    
  25 C25           -0.1372    -9.3820    -0.3606 C.ar    
  26 C26            0.7086    -8.5011    -1.0408 C.ar    
  27 C27            0.5175    -7.1423    -0.9297 C.ar    
  28 C28            0.0610   -10.8383    -0.4813 C.2     
  29 O29           -0.6748   -11.6027     0.1109 O.2     
  30 O30            1.0581   -11.3212    -1.2483 O.3     
  31 C31            1.5926     3.2016    -0.0925 C.3     
  32 F32            0.6254     3.9569     0.5792 F       
  33 F33            2.8281     3.3518     0.5464 F       
  34 C34            8.2299     2.2294    -0.2296 C.3     
  35 C35           -2.4672    -6.9763     1.4029 C.3     
  36 H36           -0.3874    -2.6546     0.8546 H       
  37 H37           -0.4153    -2.6624    -0.9251 H       
  38 H38           -1.5918    -4.9071     0.0749 H       
  39 H39            3.6299     0.7135     2.0096 H       
  40 H40            6.0862     0.7596     1.9905 H       
  41 H41            7.3176     0.7640    -2.5821 H       
  42 H42            6.0683     0.7310    -4.6728 H       
  43 H43            3.6111     0.6834    -4.6713 H       
  44 H44            2.3643     0.6626    -2.5784 H       
  45 H45            8.1095     0.3602     0.8344 H       
  46 H46            8.1302     0.1974    -0.9380 H       
  47 H47           -1.8265    -9.5568     0.9620 H       
  48 H48            1.5086    -8.8861    -1.6558 H       
  49 H49            1.1706    -6.4611    -1.4549 H       
  50 H50            1.1486   -12.2828    -1.2964 H       
  51 H51            1.6722     3.5472    -1.1232 H       
  52 H52            7.8674     2.6525    -1.1665 H       
  53 H53            7.8467     2.8152     0.6059 H       
  54 H54            9.3196     2.2509    -0.2188 H       
  55 H55           -3.3681    -6.8637     0.7997 H       
  56 H56           -2.6634    -7.6663     2.2236 H       
  57 H57           -2.1759    -6.0062     1.8055 H       
@<TRIPOS>BOND
   1    1    2 1
   2    1    3 2
   3    2    5 2
   4    3    4 1
   5    3   31 1
   6    4    5 1
   7    4   11 1
   8    5    6 1
   9    6    7 1
  10    7    8 1
  11    7   36 1
  12    7   37 1
  13    8    9 2
  14    8   10 am
  15   10   22 1
  16   10   38 1
  17   11   12 ar
  18   11   16 ar
  19   12   13 ar
  20   12   39 1
  21   13   14 ar
  22   13   40 1
  23   14   15 ar
  24   14   21 1
  25   15   16 ar
  26   15   17 ar
  27   16   20 ar
  28   17   18 ar
  29   17   41 1
  30   18   19 ar
  31   18   42 1
  32   19   20 ar
  33   19   43 1
  34   20   44 1
  35   21   34 1
  36   21   45 1
  37   21   46 1
  38   22   23 ar
  39   22   27 ar
  40   23   24 ar
  41   23   35 1
  42   24   25 ar
  43   24   47 1
  44   25   26 ar
  45   25   28 1
  46   26   27 ar
  47   26   48 1
  48   27   49 1
  49   28   29 2
  50   28   30 1
  51   30   50 1
  52   31   32 1
  53   31   33 1
  54   31   51 1
  55   34   52 1
  56   34   53 1
  57   34   54 1
  58   35   55 1
  59   35   56 1
  60   35   57 1

#	End of record

