#	Name: ASD02408025
#	Creating user name:	WinNT
#	Creation time:	15. 06. 2019 20:21

#	Modifying user name:	WinNT
#	Modification time:	15. 06. 2019 20:21

#	Program:	/corina/corina34_cracker 3.40 0067  02.08.2006

@<TRIPOS>MOLECULE
ASD02408025
  29   30    0    0    0
SMALL
NO_CHARGES


@<TRIPOS>ATOM
   1 C1            -0.0167     1.3778     0.0096 C.ar    
   2 C2             0.0021    -0.0041     0.0020 C.ar    
   3 C3             1.2783     2.1486     0.0014 C.3     
   4 C4             1.6964     2.4131    -1.4221 C.2     
   5 N5             2.8366     3.0942    -1.6501 N.am    
   6 N6             0.9449     1.9704    -2.3927 N.2     
   7 C7             1.2672     2.1755    -3.6771 C.2     
   8 C8             2.4416     2.8839    -3.9865 C.2     
   9 C9             3.2417     3.3492    -2.9119 C.2     
  10 S10            0.2308     1.5637    -4.9641 S.3     
  11 O11            4.2700     3.9687    -3.1233 O.2     
  12 C12           -1.1865    -0.7120     0.0091 C.ar    
  13 C13           -2.3942    -0.0354     0.0238 C.ar    
  14 C14           -2.4111     1.3479     0.0314 C.ar    
  15 C15           -1.2229     2.0536     0.0190 C.ar    
  16 C16           -1.0651     0.7758    -3.9763 C.3     
  17 Cl17          -1.1635    -2.4478    -0.0010 Cl      
  18 Cl18          -3.8866    -0.9223     0.0321 Cl      
  19 C19            2.8212     3.1241    -5.3462 C.1     
  20 N20            3.1223     3.3146    -6.4248 N.1     
  21 H21            0.9446    -0.5313    -0.0098 H       
  22 H22            1.1403     3.0964     0.5217 H       
  23 H23            2.0505     1.5669     0.5048 H       
  24 H24            3.3702     3.4039    -0.9015 H       
  25 H25           -3.3529     1.8764     0.0425 H       
  26 H26           -1.2364     3.1335     0.0249 H       
  27 H27           -1.8093     0.3342    -4.6391 H       
  28 H28           -0.6247    -0.0034    -3.3542 H       
  29 H29           -1.5419     1.5220    -3.3407 H       
@<TRIPOS>BOND
   1    1    2 ar
   2    1    3 1
   3    1   15 ar
   4    2   12 ar
   5    2   21 1
   6    3    4 1
   7    3   22 1
   8    3   23 1
   9    4    5 1
  10    4    6 2
  11    5    9 am
  12    5   24 1
  13    6    7 1
  14    7    8 2
  15    7   10 1
  16    8    9 1
  17    8   19 1
  18    9   11 2
  19   10   16 1
  20   12   13 ar
  21   12   17 1
  22   13   14 ar
  23   13   18 1
  24   14   15 ar
  25   14   25 1
  26   15   26 1
  27   16   27 1
  28   16   28 1
  29   16   29 1
  30   19   20 3

#	End of record

