#	Name: ASD03740066
#	Creating user name:	WinNT
#	Creation time:	15. 06. 2019 20:46

#	Modifying user name:	WinNT
#	Modification time:	15. 06. 2019 20:46

#	Program:	/corina/corina34_cracker 3.40 0067  02.08.2006

@<TRIPOS>MOLECULE
ASD03740066
  46   48    0    0    0
SMALL
NO_CHARGES


@<TRIPOS>ATOM
   1 C1            -0.0168     1.3849     0.0097 C.ar    
   2 C2             0.0021    -0.0041     0.0020 C.ar    
   3 C3            -1.1618    -0.7196     0.0088 C.ar    
   4 C4            -2.3848    -0.0537     0.0241 C.ar    
   5 C5            -2.4054     1.3545     0.0323 C.ar    
   6 C6            -1.2009     2.0643     0.0303 C.ar    
   7 N7            -3.6909    -0.4687     0.0340 N.pl3   
   8 N8            -4.5286     0.6512     0.0482 N.2     
   9 C9            -3.8151     1.7441     0.0477 C.2     
  10 O10           -4.2956     3.0156     0.0599 O.3     
  11 C11           -4.1385    -1.8636     0.0294 C.3     
  12 C12           -4.2784    -2.3509     1.4486 C.ar    
  13 C13           -5.7159     3.1723     0.0740 C.3     
  14 C14           -6.0646     4.6620     0.0863 C.3     
  15 N15           -5.6180     5.2798    -1.1694 N.3     
  16 C16           -5.4824    -2.2087     2.1127 C.ar    
  17 C17           -5.6107    -2.6556     3.4145 C.ar    
  18 C18           -4.5351    -3.2451     4.0521 C.ar    
  19 C19           -3.3314    -3.3882     3.3877 C.ar    
  20 C20           -3.2044    -2.9452     2.0844 C.ar    
  21 C21           -6.3743     4.7532    -2.3134 C.3     
  22 C22           -5.7185     6.7437    -1.1008 C.3     
  23 C23            1.2821     2.1491     0.0014 C.3     
  24 H24            0.9482    -0.5247    -0.0098 H       
  25 H25           -1.1335    -1.7992     0.0021 H       
  26 H26           -1.2072     3.1442     0.0365 H       
  27 H27           -5.1018    -1.9345    -0.4757 H       
  28 H28           -3.4070    -2.4782    -0.4953 H       
  29 H29           -6.1417     2.7068    -0.8149 H       
  30 H30           -6.1252     2.6960     0.9649 H       
  31 H31           -7.1434     4.7818     0.1865 H       
  32 H32           -5.5657     5.1450     0.9264 H       
  33 H33           -6.3227    -1.7481     1.6146 H       
  34 H34           -6.5512    -2.5439     3.9336 H       
  35 H35           -4.6352    -3.5937     5.0694 H       
  36 H36           -2.4910    -3.8484     3.8859 H       
  37 H37           -2.2639    -3.0569     1.5653 H       
  38 H38           -7.4346     4.9661    -2.1770 H       
  39 H39           -6.0236     5.2273    -3.2301 H       
  40 H40           -6.2260     3.6755    -2.3820 H       
  41 H41           -5.0934     7.1131    -0.2879 H       
  42 H42           -5.3817     7.1756    -2.0432 H       
  43 H43           -6.7550     7.0287    -0.9205 H       
  44 H44            1.5854     2.3389    -1.0282 H       
  45 H45            1.1489     3.0976     0.5216 H       
  46 H46            2.0514     1.5635     0.5047 H       
@<TRIPOS>BOND
   1    1    2 ar
   2    1   23 1
   3    1    6 ar
   4    2    3 ar
   5    2   24 1
   6    3    4 ar
   7    3   25 1
   8    4    5 ar
   9    4    7 1
  10    5    6 ar
  11    5    9 1
  12    6   26 1
  13    7    8 1
  14    7   11 1
  15    8    9 2
  16    9   10 1
  17   10   13 1
  18   11   12 1
  19   11   27 1
  20   11   28 1
  21   12   16 ar
  22   12   20 ar
  23   13   14 1
  24   13   29 1
  25   13   30 1
  26   14   15 1
  27   14   31 1
  28   14   32 1
  29   15   21 1
  30   15   22 1
  31   16   17 ar
  32   16   33 1
  33   17   18 ar
  34   17   34 1
  35   18   19 ar
  36   18   35 1
  37   19   20 ar
  38   19   36 1
  39   20   37 1
  40   21   38 1
  41   21   39 1
  42   21   40 1
  43   22   41 1
  44   22   42 1
  45   22   43 1
  46   23   44 1
  47   23   45 1
  48   23   46 1

#	End of record

