#	Name: ASD00860008
#	Creating user name:	WinNT
#	Creation time:	15. 06. 2019 18:53

#	Modifying user name:	WinNT
#	Modification time:	15. 06. 2019 18:53

#	Program:	/corina/corina34_cracker 3.40 0067  02.08.2006

@<TRIPOS>MOLECULE
ASD00860008
  38   40    0    0    0
SMALL
NO_CHARGES


@<TRIPOS>ATOM
   1 C1            -0.0173     1.4248     0.0099 C.3     
   2 C2             1.4181     1.9544    -0.0010 C.3     
   3 C3             1.4245     3.4933     0.1334 C.3     
   4 O4             1.6779     3.8766     1.4866 O.3     
   5 C5             2.5832     3.9454    -0.7833 C.3     
   6 O6             3.5875     4.6217    -0.0244 O.3     
   7 C7             3.1397     2.6261    -1.3632 C.3     
   8 O8             2.0408     1.6928    -1.2776 O.3     
   9 N9             3.5429     2.8126    -2.7592 N.pl3   
  10 C10            2.7843     2.5432    -3.8613 C.2     
  11 N11            3.4557     2.8270    -4.9389 N.2     
  12 C12            4.6806     3.2937    -4.5945 C.2     
  13 C13            5.8041     3.7454    -5.3257 C.2     
  14 O14            5.7889     3.7668    -6.5446 O.2     
  15 N15            6.8948     4.1530    -4.6395 N.am    
  16 C16            6.9008     4.1252    -3.2768 C.2     
  17 N17            8.0222     4.5455    -2.6067 N.pl3   
  18 N18            5.8635     3.7078    -2.5859 N.2     
  19 C19            4.7468     3.2944    -3.1965 C.2     
  20 P20           -1.3361    -0.8992     0.0100 P.3     
  21 O21           -2.2020    -0.5022    -1.1227 O.2     
  22 O22            0.0021    -0.0041     0.0020 O.3     
  23 O23           -2.1257    -0.6718     1.3945 O.3     
  24 O24           -0.9428    -2.4537    -0.1344 O.3     
  25 H25           -0.5275     1.7763     0.9067 H       
  26 H26           -0.5445     1.7859    -0.8732 H       
  27 H27            1.9953     1.5007     0.8047 H       
  28 H28            0.4780     3.9106    -0.2099 H       
  29 H29            1.6929     4.8331     1.6281 H       
  30 H30            2.2107     4.5884    -1.5807 H       
  31 H31            3.2755     5.4262     0.4121 H       
  32 H32            3.9826     2.2755    -0.7675 H       
  33 H33            1.7774     2.1529    -3.8418 H       
  34 H34            7.6773     4.4666    -5.1192 H       
  35 H35            8.7955     4.8566    -3.1028 H       
  36 H36            8.0415     4.5316    -1.6370 H       
  37 H37           -1.6172    -0.9117     2.1813 H       
  38 H38           -1.7018    -3.0529    -0.1370 H       
@<TRIPOS>BOND
   1    1   22 1
   2    1    2 1
   3    1   25 1
   4    1   26 1
   5    2    3 1
   6    2    8 1
   7    2   27 1
   8    3    4 1
   9    3    5 1
  10    3   28 1
  11    4   29 1
  12    5    6 1
  13    5    7 1
  14    5   30 1
  15    6   31 1
  16    7    8 1
  17    7    9 1
  18    7   32 1
  19    9   10 1
  20    9   19 1
  21   10   11 2
  22   10   33 1
  23   11   12 1
  24   12   13 1
  25   12   19 2
  26   13   14 2
  27   13   15 am
  28   15   16 1
  29   15   34 1
  30   16   17 1
  31   16   18 2
  32   17   35 1
  33   17   36 1
  34   18   19 1
  35   20   21 2
  36   20   22 1
  37   20   23 1
  38   20   24 1
  39   23   37 1
  40   24   38 1

#	End of record

