#	Name: ASD03092099
#	Creating user name:	WinNT
#	Creation time:	15. 06. 2019 20:31

#	Modifying user name:	WinNT
#	Modification time:	15. 06. 2019 20:31

#	Program:	/corina/corina34_cracker 3.40 0067  02.08.2006

@<TRIPOS>MOLECULE
ASD03092099
  50   52    0    0    0
SMALL
NO_CHARGES


@<TRIPOS>ATOM
   1 N1             0.1382     1.5175     0.0348 N.am    
   2 C2             0.1261     0.1489    -0.0403 C.2     
   3 C3            -1.1783    -0.2445    -0.0868 C.2     
   4 C4            -1.9772     0.9093    -0.0389 C.2     
   5 N5            -1.1917     1.9574     0.0388 N.2     
   6 N6            -3.3742     0.9364    -0.0645 N.pl3   
   7 C7            -4.0522     2.1483     0.0879 C.ar    
   8 C8            -3.5065     3.3198    -0.4225 C.ar    
   9 C9            -4.1773     4.5181    -0.2716 C.ar    
  10 C10           -5.3916     4.5552     0.3867 C.ar    
  11 C11           -5.2751     2.1830     0.7447 C.ar    
  12 C12            1.3097    -0.7373    -0.0667 C.ar    
  13 C13            1.2337     2.2999     0.0992 C.2     
  14 C14            1.3020    -1.9677     0.6006 C.ar    
  15 C15            2.4278    -2.7629     0.5498 C.ar    
  16 N16            3.5002    -2.3774    -0.1153 N.ar    
  17 C17            3.5495    -1.2260    -0.7577 C.ar    
  18 C18            2.4667    -0.3717    -0.7644 C.ar    
  19 C19            4.8039    -0.8417    -1.4993 C.3     
  20 C20           -5.9420     3.3879     0.8984 C.ar    
  21 N21            1.1076     3.6410     0.0560 N.am    
  22 O22            2.3352     1.7960     0.1964 O.2     
  23 C23            2.2984     4.4914     0.1260 C.3     
  24 C24            2.4334    -4.0898     1.2642 C.3     
  25 O25           -7.1364     3.4262     1.5455 O.3     
  26 C26           -7.6430     2.1874     2.0461 C.3     
  27 F27           -6.7350     1.6492     2.9644 F       
  28 F28           -8.8711     2.4074     2.6789 F       
  29 F29           -7.8188     1.2926     0.9851 F       
  30 C30           -3.5832     5.7874    -0.8256 C.3     
  31 F31           -4.0247     5.9740    -2.1399 F       
  32 F32           -3.9859     6.8725    -0.0399 F       
  33 F33           -2.1874     5.6940    -0.8114 F       
  34 H34           -1.5340    -1.2624    -0.1496 H       
  35 H35           -3.8731     0.1138    -0.1882 H       
  36 H36           -2.5574     3.2936    -0.9371 H       
  37 H37           -5.9132     5.4936     0.5036 H       
  38 H38           -5.7038     1.2733     1.1385 H       
  39 H39            0.4279    -2.2894     1.1473 H       
  40 H40            2.5140     0.5691    -1.2926 H       
  41 H41            4.7458    -1.2061    -2.5249 H       
  42 H42            4.9049     0.2436    -1.5045 H       
  43 H43            5.6684    -1.2847    -1.0048 H       
  44 H44            0.2283     4.0432    -0.0216 H       
  45 H45            2.8224     4.3063     1.0637 H       
  46 H46            2.9585     4.2619    -0.7105 H       
  47 H47            2.0004     5.5387     0.0769 H       
  48 H48            2.0736    -4.8669     0.5899 H       
  49 H49            3.4485    -4.3266     1.5829 H       
  50 H50            1.7821    -4.0355     2.1365 H       
@<TRIPOS>BOND
   1    1    2 1
   2    1   13 am
   3    1    5 1
   4    2    3 2
   5    2   12 1
   6    3    4 1
   7    3   34 1
   8    4    5 2
   9    4    6 1
  10    6    7 1
  11    6   35 1
  12    7    8 ar
  13    7   11 ar
  14    8    9 ar
  15    8   36 1
  16    9   10 ar
  17    9   30 1
  18   10   20 ar
  19   10   37 1
  20   11   20 ar
  21   11   38 1
  22   12   14 ar
  23   12   18 ar
  24   13   21 am
  25   13   22 2
  26   14   15 ar
  27   14   39 1
  28   15   16 ar
  29   15   24 1
  30   16   17 ar
  31   17   18 ar
  32   17   19 1
  33   18   40 1
  34   19   41 1
  35   19   42 1
  36   19   43 1
  37   20   25 1
  38   21   23 1
  39   21   44 1
  40   23   45 1
  41   23   46 1
  42   23   47 1
  43   24   48 1
  44   24   49 1
  45   24   50 1
  46   25   26 1
  47   26   27 1
  48   26   28 1
  49   26   29 1
  50   30   31 1
  51   30   32 1
  52   30   33 1

#	End of record

