#	Name: ASD07930746
#	Creating user name:	WinNT
#	Creation time:	15. 06. 2019 21:13

#	Modifying user name:	WinNT
#	Modification time:	15. 06. 2019 21:13

#	Program:	/corina/corina34_cracker 3.40 0067  02.08.2006

@<TRIPOS>MOLECULE
ASD07930746
  48   50    0    0    0
SMALL
NO_CHARGES


@<TRIPOS>ATOM
   1 C1             1.9198    -1.4731     2.8096 C.3     
   2 N2            -0.6865    -0.2191     2.0710 N.2     
   3 N3            -1.1271    -2.2858     1.0731 N.pl3   
   4 C4            -0.8914    -2.8298    -0.2684 C.3     
   5 C5             0.4860    -3.5061    -0.3053 C.3     
   6 S6             1.7361    -2.2843     0.2034 S.o2    
   7 N7             1.0963    -1.6704     1.6142 N.am    
   8 C8            -0.2551    -1.3557     1.6009 C.2     
   9 C9            -0.9312    -1.6952    -1.2941 C.3     
  10 O10            2.9367    -2.9289     0.6061 O.2     
  11 O11            1.7551    -1.1801    -0.6908 O.2     
  12 C12           -1.9583    -3.8426    -0.5953 C.ar    
  13 C13           -2.1000    -4.9764     0.1899 C.ar    
  14 C14           -3.0799    -5.9123    -0.1050 C.ar    
  15 C15           -3.9184    -5.7199    -1.1816 C.ar    
  16 C16           -3.7802    -4.5793    -1.9761 C.ar    
  17 C17           -2.7953    -3.6373    -1.6712 C.ar    
  18 F18           -1.2801    -5.1704     1.2460 F       
  19 C19           -4.6758    -4.3677    -3.1312 C.2     
  20 O20           -4.5535    -3.3743    -3.8212 O.2     
  21 N21           -5.6287    -5.2759    -3.4203 N.am    
  22 C22           -6.5412    -5.0266    -4.4431 C.ar    
  23 C23           -7.4509    -6.0119    -4.8098 C.ar    
  24 C24           -8.3521    -5.7509    -5.8271 C.ar    
  25 C25           -8.3120    -4.5086    -6.4449 C.ar    
  26 C26           -7.3812    -3.5766    -6.0294 C.ar    
  27 N27           -6.5377    -3.8517    -5.0533 N.ar    
  28 C28           -9.2737    -4.1802    -7.5576 C.3     
  29 F29          -10.4332    -3.6119    -7.0194 F       
  30 F30           -8.6754    -3.2730    -8.4386 F       
  31 F31           -9.6054    -5.3510    -8.2480 F       
  32 H32            2.3493    -0.4714     2.7937 H       
  33 H33            1.3016    -1.5893     3.6999 H       
  34 H34            2.7211    -2.2119     2.8248 H       
  35 H35           -0.0592     0.4233     2.4381 H       
  36 H36           -1.8969    -2.5764     1.5868 H       
  37 H37            0.4984    -4.3524     0.3816 H       
  38 H38            0.6993    -3.8505    -1.3173 H       
  39 H39           -0.1578    -0.9644    -1.0576 H       
  40 H40           -0.7559    -2.1001    -2.2908 H       
  41 H41           -1.9081    -1.2128    -1.2645 H       
  42 H42           -3.1860    -6.7937     0.5100 H       
  43 H43           -4.6808    -6.4497    -1.4108 H       
  44 H44           -2.6843    -2.7536    -2.2820 H       
  45 H45           -5.6792    -6.1031    -2.9162 H       
  46 H46           -7.4540    -6.9681    -4.3078 H       
  47 H47           -9.0701    -6.4971    -6.1337 H       
  48 H48           -7.3462    -2.6086    -6.5071 H       
@<TRIPOS>BOND
   1    1    7 1
   2    1   32 1
   3    1   33 1
   4    1   34 1
   5    2    8 2
   6    2   35 1
   7    3    4 1
   8    3    8 1
   9    3   36 1
  10    4    5 1
  11    4    9 1
  12    4   12 1
  13    5    6 1
  14    5   37 1
  15    5   38 1
  16    6    7 am
  17    6   10 2
  18    6   11 2
  19    7    8 1
  20    9   39 1
  21    9   40 1
  22    9   41 1
  23   12   13 ar
  24   12   17 ar
  25   13   14 ar
  26   13   18 1
  27   14   15 ar
  28   14   42 1
  29   15   16 ar
  30   15   43 1
  31   16   17 ar
  32   16   19 1
  33   17   44 1
  34   19   20 2
  35   19   21 am
  36   21   22 1
  37   21   45 1
  38   22   23 ar
  39   22   27 ar
  40   23   24 ar
  41   23   46 1
  42   24   25 ar
  43   24   47 1
  44   25   26 ar
  45   25   28 1
  46   26   27 ar
  47   26   48 1
  48   28   29 1
  49   28   30 1
  50   28   31 1

#	End of record

