#	Name: ASD02039091
#	Creating user name:	WinNT
#	Creation time:	15. 06. 2019 20:17

#	Modifying user name:	WinNT
#	Modification time:	15. 06. 2019 20:17

#	Program:	/corina/corina34_cracker 3.40 0067  02.08.2006

@<TRIPOS>MOLECULE
ASD02039091
  40   43    0    0    0
SMALL
NO_CHARGES


@<TRIPOS>ATOM
   1 N1            -0.0154     1.2823     0.0091 N.2     
   2 N2             0.0021    -0.0041     0.0020 N.2     
   3 C3             1.2155     1.7327    -0.0002 C.2     
   4 O4             2.0320     0.6629    -0.0138 O.3     
   5 C5             1.2335    -0.4225    -0.0120 C.2     
   6 N6             1.6029     3.0599     0.0032 N.pl3   
   7 C7             1.2700     5.4636     0.0197 C.ar    
   8 C8             1.6853    -1.8601    -0.0233 C.3     
   9 O9             1.8159    -2.3078    -1.3740 O.3     
  10 C10            2.2184    -3.5929    -1.5623 C.ar    
  11 C11            2.3650    -4.0899    -2.8475 C.ar    
  12 C12            2.4869    -4.4020    -0.4663 C.ar    
  13 C13            2.8966    -5.7081    -0.6502 C.ar    
  14 C14            3.0399    -6.2136    -1.9328 C.ar    
  15 C15            2.7754    -5.4003    -3.0368 C.ar    
  16 C16            1.5695     6.0866    -1.1771 C.ar    
  17 C17            1.5883     6.0763     1.2176 C.ar    
  18 C18            2.2064     7.3124     1.2196 C.ar    
  19 C19            2.5069     7.9375     0.0225 C.ar    
  20 C20            2.1882     7.3240    -1.1769 C.ar    
  21 Cl21           3.2828     9.4905     0.0245 Cl      
  22 Cl22           2.5651     8.1067    -2.6799 Cl      
  23 N23            3.4259    -7.4574    -2.4327 N.am    
  24 C24            3.3916    -7.4023    -3.7775 C.2     
  25 N25            3.0039    -6.1748    -4.1716 N.am    
  26 O26            3.6721    -8.3217    -4.5238 O.2     
  27 C27            0.5904     4.1185     0.0191 C.3     
  28 H28            2.5452     3.2900    -0.0049 H       
  29 H29            2.6479    -1.9425     0.4815 H       
  30 H30            0.9499    -2.4762     0.4942 H       
  31 H31            2.1597    -3.4583    -3.6991 H       
  32 H32            2.3754    -4.0086     0.5332 H       
  33 H33            3.1053    -6.3347     0.2044 H       
  34 H34            1.3208     5.6073    -2.1124 H       
  35 H35            1.3535     5.5888     2.1523 H       
  36 H36            2.4544     7.7906     2.1557 H       
  37 H37            3.6765    -8.2298    -1.9022 H       
  38 H38            2.8999    -5.8803    -5.0900 H       
  39 H39           -0.0409     4.0308    -0.8651 H       
  40 H40           -0.0232     4.0210     0.9147 H       
@<TRIPOS>BOND
   1    1    2 1
   2    1    3 2
   3    2    5 2
   4    3    4 1
   5    3    6 1
   6    4    5 1
   7    5    8 1
   8    6   27 1
   9    6   28 1
  10    7   16 ar
  11    7   17 ar
  12    7   27 1
  13    8    9 1
  14    8   29 1
  15    8   30 1
  16    9   10 1
  17   10   11 ar
  18   10   12 ar
  19   11   15 ar
  20   11   31 1
  21   12   13 ar
  22   12   32 1
  23   13   14 ar
  24   13   33 1
  25   14   15 ar
  26   14   23 1
  27   15   25 1
  28   16   20 ar
  29   16   34 1
  30   17   18 ar
  31   17   35 1
  32   18   19 ar
  33   18   36 1
  34   19   20 ar
  35   19   21 1
  36   20   22 1
  37   23   24 am
  38   23   37 1
  39   24   25 am
  40   24   26 2
  41   25   38 1
  42   27   39 1
  43   27   40 1

#	End of record

