#	Name: ASD09116028
#	Creating user name:	WinNT
#	Creation time:	15. 06. 2019 21:20

#	Modifying user name:	WinNT
#	Modification time:	15. 06. 2019 21:20

#	Program:	/corina/corina34_cracker 3.40 0067  02.08.2006

@<TRIPOS>MOLECULE
ASD09116028
  79   86    0    0    0
SMALL
NO_CHARGES


@<TRIPOS>ATOM
   1 C1            -0.1993     1.3915     0.3583 C.ar    
   2 C2            -0.1587     0.0000     0.3081 C.ar    
   3 C3            -1.3331    -0.6971     0.1607 C.ar    
   4 N4            -2.4707    -0.0059     0.0717 N.ar    
   5 N5            -2.5112     1.2765     0.1179 N.ar    
   6 C6            -1.4169     2.0287     0.2643 C.ar    
   7 N7            -1.3361    -2.0921     0.1051 N.pl3   
   8 N8            -0.2193    -2.9394     0.1859 N.2     
   9 C9            -0.6645    -4.1694     0.0915 C.2     
  10 N10           -1.9956    -4.1424    -0.0437 N.2     
  11 C11           -2.4168    -2.8958    -0.0315 C.2     
  12 N12            0.1228    -5.3206     0.1261 N.pl3   
  13 C13           -0.4813    -6.5806     0.1217 C.ar    
  14 C14            0.1543    -7.6550    -0.4885 C.ar    
  15 C15           -1.7163    -6.7625     0.7325 C.ar    
  16 C16           -2.3052    -8.0134     0.7216 C.ar    
  17 C17           -1.6779    -9.0703     0.1136 C.ar    
  18 C18           -0.4444    -8.8999    -0.4920 C.ar    
  19 N19           -3.7296    -2.4802    -0.1476 N.pl3   
  20 C20            1.1567     2.0314     0.5216 C.3     
  21 C21            1.7801     1.4658     1.8095 C.3     
  22 C22            1.8245    -0.0613     1.7551 C.3     
  23 C23            1.2329    -0.5692     0.4288 C.3     
  24 C24            2.0319     1.5610    -0.6531 C.3     
  25 C25            2.0768     0.0340    -0.7075 C.3     
  26 C26           -1.5092     3.5082     0.3131 C.ar    
  27 C27           -0.6088     4.2894    -0.4091 C.ar    
  28 C28           -0.6994     5.6656    -0.3599 C.ar    
  29 C29           -1.6815     6.2699     0.4043 C.ar    
  30 C30           -2.5775     5.4995     1.1234 C.ar    
  31 C31           -2.5002     4.1223     1.0768 C.ar    
  32 C32           -3.6522    -8.2085     1.3864 C.3     
  33 C33           -3.4507    -9.0404     2.6553 C.3     
  34 C34           -3.4688   -10.5230     2.3397 C.3     
  35 C35           -2.2841   -11.0052     1.5261 C.3     
  36 C36           -2.3291   -10.4380     0.1048 C.3     
  37 N37           -3.4994   -11.2684     3.6052 N.3     
  38 C38           -3.6381   -12.7161     3.3624 C.3     
  39 C39           -2.4430   -13.4112     4.0480 C.3     
  40 C40           -2.0049   -12.3776     5.1188 C.3     
  41 C41           -2.2651   -11.0381     4.3857 C.3     
  42 H42            1.0896    -5.2464     0.1532 H       
  43 H43            1.1160    -7.5167    -0.9601 H       
  44 H44           -2.2127    -5.9323     1.2129 H       
  45 H45            0.0455    -9.7358    -0.9692 H       
  46 H46           -4.4383    -3.1345    -0.2497 H       
  47 H47           -3.9424    -1.5340    -0.1269 H       
  48 H48            1.0785     3.1177     0.5643 H       
  49 H49            2.7934     1.8521     1.9193 H       
  50 H50            1.1834     1.7787     2.6663 H       
  51 H51            2.8587    -0.3950     1.8398 H       
  52 H52            1.2483    -0.4684     2.5861 H       
  53 H53            1.2187    -1.6586     0.3939 H       
  54 H54            1.6181     1.9429    -1.5864 H       
  55 H55            3.0434     1.9470    -0.5261 H       
  56 H56            3.1094    -0.3001    -0.6060 H       
  57 H57            1.6843    -0.3042    -1.6665 H       
  58 H58            0.1585     3.8187    -1.0057 H       
  59 H59           -0.0021     6.2720    -0.9188 H       
  60 H60           -1.7487     7.3472     0.4399 H       
  61 H61           -3.3420     5.9766     1.7187 H       
  62 H62           -3.2003     3.5218     1.6386 H       
  63 H63           -4.0756    -7.2386     1.6475 H       
  64 H64           -4.3235    -8.7336     0.7068 H       
  65 H65           -2.4920    -8.7816     3.1048 H       
  66 H66           -4.2492    -8.8148     3.3621 H       
  67 H67           -4.3816   -10.7479     1.7880 H       
  68 H68           -1.3622   -10.6842     2.0109 H       
  69 H69           -2.3021   -12.0940     1.4779 H       
  70 H70           -3.3654   -10.3484    -0.2212 H       
  71 H71           -1.7852   -11.0984    -0.5706 H       
  72 H72           -4.5729   -13.0762     3.7921 H       
  73 H73           -3.6186   -12.9160     2.2911 H       
  74 H74           -2.7570   -14.3433     4.5178 H       
  75 H75           -1.6395   -13.5900     3.3335 H       
  76 H76           -2.6207   -12.4585     6.0146 H       
  77 H77           -0.9484   -12.4910     5.3617 H       
  78 H78           -1.4342   -10.8017     3.7209 H       
  79 H79           -2.4162   -10.2342     5.1062 H       
@<TRIPOS>BOND
   1    1    2 ar
   2    1   20 1
   3    1    6 ar
   4    2    3 ar
   5    2   23 1
   6    3    4 ar
   7    3    7 1
   8    4    5 ar
   9    5    6 ar
  10    6   26 1
  11    7    8 1
  12    7   11 1
  13    8    9 2
  14    9   10 1
  15    9   12 1
  16   10   11 2
  17   11   19 1
  18   12   13 1
  19   12   42 1
  20   13   14 ar
  21   13   15 ar
  22   14   18 ar
  23   14   43 1
  24   15   16 ar
  25   15   44 1
  26   16   17 ar
  27   16   32 1
  28   17   18 ar
  29   17   36 1
  30   18   45 1
  31   19   46 1
  32   19   47 1
  33   20   21 1
  34   20   24 1
  35   20   48 1
  36   21   22 1
  37   21   49 1
  38   21   50 1
  39   22   23 1
  40   22   51 1
  41   22   52 1
  42   23   25 1
  43   23   53 1
  44   24   25 1
  45   24   54 1
  46   24   55 1
  47   25   56 1
  48   25   57 1
  49   26   27 ar
  50   26   31 ar
  51   27   28 ar
  52   27   58 1
  53   28   29 ar
  54   28   59 1
  55   29   30 ar
  56   29   60 1
  57   30   31 ar
  58   30   61 1
  59   31   62 1
  60   32   33 1
  61   32   63 1
  62   32   64 1
  63   33   34 1
  64   33   65 1
  65   33   66 1
  66   34   35 1
  67   34   37 1
  68   34   67 1
  69   35   36 1
  70   35   68 1
  71   35   69 1
  72   36   70 1
  73   36   71 1
  74   37   38 1
  75   37   41 1
  76   38   39 1
  77   38   72 1
  78   38   73 1
  79   39   40 1
  80   39   74 1
  81   39   75 1
  82   40   41 1
  83   40   76 1
  84   40   77 1
  85   41   78 1
  86   41   79 1

#	End of record

