#	Name: ASD05062025
#	Creating user name:	WinNT
#	Creation time:	15. 06. 2019 20:56

#	Modifying user name:	WinNT
#	Modification time:	15. 06. 2019 20:56

#	Program:	/corina/corina34_cracker 3.40 0067  02.08.2006

@<TRIPOS>MOLECULE
ASD05062025
  16   17    0    0    0
SMALL
NO_CHARGES


@<TRIPOS>ATOM
   1 C1            -0.0167     1.3828     0.0096 C.ar    
   2 C2             0.0021    -0.0041     0.0020 C.ar    
   3 C3             1.2118    -0.6815    -0.0128 C.ar    
   4 C4             2.4021     0.0270    -0.0203 C.ar    
   5 C5             2.3807     1.4194    -0.0131 C.ar    
   6 C6             1.1697     2.0918     0.0021 C.ar    
   7 O7             3.7020    -0.3895    -0.0341 O.3     
   8 C8             4.4689     0.7568    -0.4478 C.3     
   9 O9             3.6684     1.8754    -0.0225 O.3     
  10 O10           -1.1663    -0.6996     0.0095 O.3     
  11 H11           -0.9597     1.9093     0.0170 H       
  12 H12            1.2260    -1.7614    -0.0180 H       
  13 H13            1.1525     3.1717     0.0073 H       
  14 H14            5.4387     0.7686     0.0497 H       
  15 H15            4.5928     0.7641    -1.5307 H       
  16 H16           -1.5127    -0.8961    -0.8717 H       
@<TRIPOS>BOND
   1    1    2 ar
   2    1    6 ar
   3    1   11 1
   4    2    3 ar
   5    2   10 1
   6    3    4 ar
   7    3   12 1
   8    4    5 ar
   9    4    7 1
  10    5    6 ar
  11    5    9 1
  12    6   13 1
  13    7    8 1
  14    8    9 1
  15    8   14 1
  16    8   15 1
  17   10   16 1

#	End of record

