#	Name: ASD02590023
#	Creating user name:	WinNT
#	Creation time:	15. 06. 2019 20:25

#	Modifying user name:	WinNT
#	Modification time:	15. 06. 2019 20:25

#	Program:	/corina/corina34_cracker 3.40 0067  02.08.2006

@<TRIPOS>MOLECULE
ASD02590023
  27   29    0    0    0
SMALL
NO_CHARGES


@<TRIPOS>ATOM
   1 C1            -0.0167     1.3835     0.0096 C.ar    
   2 C2             0.0021    -0.0041     0.0020 C.ar    
   3 C3            -1.1767    -0.7196     0.0094 C.ar    
   4 C4            -2.3903    -0.0460     0.0251 C.ar    
   5 C5            -2.4095     1.3608     0.0333 C.ar    
   6 C6            -1.2006     2.0645     0.0303 C.ar    
   7 N7            -3.7102    -0.4491     0.0357 N.pl3   
   8 C8            -4.4791     0.6832     0.0496 C.2     
   9 N9            -3.7089     1.7427     0.0482 N.2     
  10 C10           -5.9588     0.7069     0.0646 C.ar    
  11 C11           -6.6307     1.9283     0.0781 C.ar    
  12 C12           -8.0154     1.9341     0.0921 C.ar    
  13 C13           -8.6826     0.7180     0.0921 C.ar    
  14 C14           -7.9520    -0.4575     0.0783 C.ar    
  15 N15           -6.6359    -0.4354     0.0597 N.ar    
  16 C16            1.2826     2.1469     0.0013 C.3     
  17 F17            2.3527     1.2459    -0.0137 F       
  18 F18            1.3397     2.9578    -1.1372 F       
  19 F19            1.3615     2.9456     1.1472 F       
  20 H20            0.9468    -0.5274    -0.0102 H       
  21 H21           -1.1558    -1.7994     0.0027 H       
  22 H22           -1.2033     3.1445     0.0369 H       
  23 H23           -4.0327    -1.3639     0.0333 H       
  24 H24           -6.0791     2.8568     0.0780 H       
  25 H25           -8.5635     2.8646     0.1030 H       
  26 H26           -9.7622     0.6887     0.1032 H       
  27 H27           -8.4688    -1.4058     0.0786 H       
@<TRIPOS>BOND
   1    1    2 ar
   2    1   16 1
   3    1    6 ar
   4    2    3 ar
   5    2   20 1
   6    3    4 ar
   7    3   21 1
   8    4    5 ar
   9    4    7 1
  10    5    6 ar
  11    5    9 1
  12    6   22 1
  13    7    8 1
  14    7   23 1
  15    8    9 2
  16    8   10 1
  17   10   11 ar
  18   10   15 ar
  19   11   12 ar
  20   11   24 1
  21   12   13 ar
  22   12   25 1
  23   13   14 ar
  24   13   26 1
  25   14   15 ar
  26   14   27 1
  27   16   17 1
  28   16   18 1
  29   16   19 1

#	End of record

