#	Name: ASD01814675
#	Creating user name:	WinNT
#	Creation time:	15. 06. 2019 19:32

#	Modifying user name:	WinNT
#	Modification time:	15. 06. 2019 19:32

#	Program:	/corina/corina34_cracker 3.40 0067  02.08.2006

@<TRIPOS>MOLECULE
ASD01814675
  51   54    0    0    0
SMALL
NO_CHARGES


@<TRIPOS>ATOM
   1 C1            -0.0444     1.3529    -0.5653 C.2     
   2 N2            -1.3564     1.7097    -0.7426 N.pl3   
   3 N3            -2.1215     0.5392    -0.7133 N.2     
   4 C4            -1.3198    -0.4898    -0.5269 C.2     
   5 C5            -0.0172    -0.0297    -0.4293 C.2     
   6 C6            -1.3145    -1.9917    -0.3813 C.3     
   7 N7             0.0755    -2.4167    -0.1888 N.am    
   8 C8             0.9019    -1.2058    -0.2209 C.3     
   9 C9            -1.6858     3.0248    -0.9050 C.2     
  10 C10           -0.7028     3.9576    -0.8877 C.2     
  11 C11            0.6277     3.5543    -0.7040 C.2     
  12 N12            0.9193     2.2835    -0.5548 N.2     
  13 C13            0.5113    -3.6807    -0.0192 C.2     
  14 C14           -0.4586    -4.7870     0.0903 C.ar    
  15 O15            1.7039    -3.9093     0.0435 O.2     
  16 C16           -0.3191    -5.7495     1.0998 C.ar    
  17 C17           -1.2365    -6.7850     1.1933 C.ar    
  18 C18           -2.2824    -6.8665     0.2952 C.ar    
  19 C19           -2.4235    -5.9177    -0.7040 C.ar    
  20 C20           -1.5244    -4.8782    -0.8078 C.ar    
  21 O21            0.7091    -5.6685     1.9810 O.3     
  22 C22           -1.0368     5.4164    -1.0650 C.3     
  23 C23            1.7279     4.5839    -0.6832 C.3     
  24 C24           -3.1230     3.4334    -1.1014 C.3     
  25 C25           -1.1832     6.0766     0.3074 C.3     
  26 C26            0.7868    -6.6849     2.9824 C.3     
  27 C27            2.0016    -6.4282     3.8764 C.3     
  28 H28           -1.9123    -2.2812     0.4829 H       
  29 H29           -1.7198    -2.4516    -1.2826 H       
  30 H30            1.6163    -1.2665    -1.0419 H       
  31 H31            1.4329    -1.0968     0.7248 H       
  32 H32           -1.1328    -7.5291     1.9692 H       
  33 H33           -2.9944    -7.6749     0.3721 H       
  34 H34           -3.2443    -5.9902    -1.4021 H       
  35 H35           -1.6410    -4.1380    -1.5855 H       
  36 H36           -0.2378     5.9071    -1.6208 H       
  37 H37           -1.9730     5.5106    -1.6153 H       
  38 H38            1.8824     4.9301     0.3387 H       
  39 H39            2.6491     4.1390    -1.0593 H       
  40 H40            1.4479     5.4275    -1.3142 H       
  41 H41           -3.7580     2.5476    -1.0857 H       
  42 H42           -3.4215     4.1088    -0.2996 H       
  43 H43           -3.2289     3.9394    -2.0610 H       
  44 H44           -0.2470     5.9824     0.8577 H       
  45 H45           -1.4248     7.1317     0.1792 H       
  46 H46           -1.9823     5.5859     0.8632 H       
  47 H47           -0.1196    -6.6688     3.5876 H       
  48 H48            0.8871    -7.6593     2.5042 H       
  49 H49            2.9080    -6.4444     3.2712 H       
  50 H50            1.9014    -5.4539     4.3547 H       
  51 H51            2.0609    -7.2035     4.6403 H       
@<TRIPOS>BOND
   1    1    5 2
   2    1   12 1
   3    1    2 1
   4    2    3 1
   5    2    9 1
   6    3    4 2
   7    4    6 1
   8    4    5 1
   9    5    8 1
  10    6    7 1
  11    6   28 1
  12    6   29 1
  13    7    8 1
  14    7   13 am
  15    8   30 1
  16    8   31 1
  17    9   10 2
  18    9   24 1
  19   10   11 1
  20   10   22 1
  21   11   12 2
  22   11   23 1
  23   13   14 1
  24   13   15 2
  25   14   16 ar
  26   14   20 ar
  27   16   17 ar
  28   16   21 1
  29   17   18 ar
  30   17   32 1
  31   18   19 ar
  32   18   33 1
  33   19   20 ar
  34   19   34 1
  35   20   35 1
  36   21   26 1
  37   22   25 1
  38   22   36 1
  39   22   37 1
  40   23   38 1
  41   23   39 1
  42   23   40 1
  43   24   41 1
  44   24   42 1
  45   24   43 1
  46   25   44 1
  47   25   45 1
  48   25   46 1
  49   26   27 1
  50   26   47 1
  51   26   48 1
  52   27   49 1
  53   27   50 1
  54   27   51 1

#	End of record

