#	Name: ASD09116204
#	Creating user name:	WinNT
#	Creation time:	15. 06. 2019 21:21

#	Modifying user name:	WinNT
#	Modification time:	15. 06. 2019 21:21

#	Program:	/corina/corina34_cracker 3.40 0067  02.08.2006

@<TRIPOS>MOLECULE
ASD09116204
  58   63    0    0    0
SMALL
NO_CHARGES


@<TRIPOS>ATOM
   1 N1            -0.0310     1.4206     0.1570 N.2     
   2 N2            -0.0233     0.0228     0.2905 N.pl3   
   3 C3             1.2213     1.8091     0.1267 C.2     
   4 N4             2.0135     0.7359     0.2335 N.2     
   5 C5             1.2773    -0.3501     0.3332 C.2     
   6 N6             1.6572     3.1285     0.0030 N.pl3   
   7 C7             3.0192     3.4261     0.0971 C.ar    
   8 C8             3.5425     4.5137    -0.5731 C.ar    
   9 C9             5.7347     4.0343     0.2660 C.ar    
  10 C10            5.1960     2.9415     0.9469 C.ar    
  11 C11            3.8584     2.6332     0.8709 C.ar    
  12 C12           -1.1367    -0.8162     0.3653 C.ar    
  13 N13           -1.0352    -2.0856     0.0005 N.ar    
  14 N14           -2.0314    -2.8971     0.0410 N.ar    
  15 C15           -3.2273    -2.5074     0.4522 C.ar    
  16 C16           -3.4238    -1.1903     0.8772 C.ar    
  17 C17           -2.3565    -0.3185     0.8304 C.ar    
  18 C18           -4.3896    -3.4257     0.4487 C.ar    
  19 C19           -5.5852    -2.9984    -0.1312 C.ar    
  20 C20           -5.6460    -1.6448    -0.7842 C.3     
  21 C21           -5.7455    -0.5299     0.2535 C.3     
  22 C22           -4.7664    -0.7689     1.3997 C.3     
  23 C23           -4.3047    -4.6931     1.0143 C.ar    
  24 C24           -5.4136    -5.5170     1.0154 C.ar    
  25 C25           -6.6027    -5.0815     0.4591 C.ar    
  26 C26           -6.6886    -3.8241    -0.1133 C.ar    
  27 N27            1.7487    -1.6430     0.4597 N.pl3   
  28 C28            4.9068     4.8350    -0.4936 C.ar    
  29 N29            5.2760     5.9660    -1.1846 N.am    
  30 C30            6.3946     6.5520    -1.5044 C.2     
  31 C31            7.7545     6.2279    -0.9979 C.3     
  32 C32            7.9331     4.7455    -0.7740 C.3     
  33 C33            7.2064     4.2328     0.4301 C.3     
  34 O34            6.3186     7.4615    -2.3031 O.2     
  35 H35            1.0148     3.8394    -0.1482 H       
  36 H36            2.8883     5.1302    -1.1717 H       
  37 H37            5.8466     2.3203     1.5445 H       
  38 H38            3.4634     1.7833     1.4076 H       
  39 H39           -2.4615     0.7124     1.1347 H       
  40 H40           -4.7465    -1.4964    -1.3818 H       
  41 H41           -6.5176    -1.6028    -1.4373 H       
  42 H42           -5.5160     0.4239    -0.2215 H       
  43 H43           -6.7605    -0.4978     0.6494 H       
  44 H44           -5.1594    -1.5507     2.0498 H       
  45 H45           -4.6550     0.1510     1.9737 H       
  46 H46           -3.3765    -5.0318     1.4502 H       
  47 H47           -5.3520    -6.5029     1.4518 H       
  48 H48           -7.4689    -5.7263     0.4711 H       
  49 H49           -7.6206    -3.4896    -0.5445 H       
  50 H50            2.7038    -1.8111     0.4809 H       
  51 H51            1.1244    -2.3824     0.5272 H       
  52 H52            4.5059     6.4513    -1.5199 H       
  53 H53            8.4937     6.5688    -1.7228 H       
  54 H54            7.9162     6.7511    -0.0555 H       
  55 H55            7.5705     4.2133    -1.6535 H       
  56 H56            8.9961     4.5358    -0.6559 H       
  57 H57            7.3666     4.9342     1.2489 H       
  58 H58            7.6493     3.2783     0.7144 H       
@<TRIPOS>BOND
   1    1    2 1
   2    1    3 2
   3    2   12 1
   4    2    5 1
   5    3    4 1
   6    3    6 1
   7    4    5 2
   8    5   27 1
   9    6    7 1
  10    6   35 1
  11    7    8 ar
  12    7   11 ar
  13    8   28 ar
  14    8   36 1
  15    9   10 ar
  16    9   28 ar
  17    9   33 1
  18   10   11 ar
  19   10   37 1
  20   11   38 1
  21   12   13 ar
  22   12   17 ar
  23   13   14 ar
  24   14   15 ar
  25   15   16 ar
  26   15   18 1
  27   16   17 ar
  28   16   22 1
  29   17   39 1
  30   18   19 ar
  31   18   23 ar
  32   19   20 1
  33   19   26 ar
  34   20   21 1
  35   20   40 1
  36   20   41 1
  37   21   22 1
  38   21   42 1
  39   21   43 1
  40   22   44 1
  41   22   45 1
  42   23   24 ar
  43   23   46 1
  44   24   25 ar
  45   24   47 1
  46   25   26 ar
  47   25   48 1
  48   26   49 1
  49   27   50 1
  50   27   51 1
  51   28   29 1
  52   29   30 am
  53   29   52 1
  54   30   31 1
  55   30   34 2
  56   31   32 1
  57   31   53 1
  58   31   54 1
  59   32   33 1
  60   32   55 1
  61   32   56 1
  62   33   57 1
  63   33   58 1

#	End of record

