#	Name: ASD01941060
#	Creating user name:	WinNT
#	Creation time:	15. 06. 2019 20:13

#	Modifying user name:	WinNT
#	Modification time:	15. 06. 2019 20:13

#	Program:	/corina/corina34_cracker 3.40 0067  02.08.2006

@<TRIPOS>MOLECULE
ASD01941060
  54   57    0    0    0
SMALL
NO_CHARGES


@<TRIPOS>ATOM
   1 C1            -0.8758     1.3862     0.3147 C.3     
   2 C2            -1.3579    -0.0398     0.5836 C.3     
   3 N3            -2.6495    -0.0887     1.2511 N.am    
   4 C4            -2.7053    -0.0051     2.6001 C.2     
   5 C5            -1.4650     0.4377     3.2696 C.2     
   6 C6            -0.7322     1.4792     2.8025 C.2     
   7 C7            -1.1100     2.2520     1.5556 C.3     
   8 O8            -3.7149    -0.2773     3.2236 O.2     
   9 C9             0.6177     1.3648    -0.0167 C.3     
  10 C10           -1.6513     1.9714    -0.8672 C.3     
  11 S11           -0.7393    -0.2481     4.7063 S.3     
  12 C12            0.5333     0.8880     4.6698 C.2     
  13 C13            0.3874     1.7375     3.5940 C.2     
  14 N14            1.5598     0.9478     5.5847 N.pl3   
  15 C15            1.6819    -0.0427     6.5643 C.ar    
  16 C16            1.4847    -1.3767     6.2333 C.ar    
  17 C17            1.6059    -2.3530     7.2031 C.ar    
  18 C18            1.9235    -2.0034     8.5030 C.ar    
  19 C19            2.1204    -0.6752     8.8371 C.ar    
  20 C20            2.0067     0.3056     7.8705 C.ar    
  21 Cl21           2.2539     1.9719     8.2899 Cl      
  22 I22            2.1060    -3.4882     9.9697 I       
  23 C23            1.3313     2.8239     3.3055 C.2     
  24 O24            2.2951     2.6190     2.5913 O.2     
  25 N25            1.1306     4.0485     3.8315 N.am    
  26 C26            2.0640     5.1510     3.5552 C.3     
  27 C27            1.2581     6.3617     3.0724 C.3     
  28 N28            0.2071     6.6683     4.0518 N.3     
  29 C29           -0.7511     5.5611     4.1695 C.3     
  30 C30           -0.0309     4.3192     4.6922 C.3     
  31 H31           -1.4338    -0.5692    -0.3662 H       
  32 H32           -0.6216    -0.5471     1.2071 H       
  33 H33           -3.4644    -0.1803     0.7329 H       
  34 H34           -0.4997     3.1527     1.4890 H       
  35 H35           -2.1621     2.5322     1.6082 H       
  36 H36            0.7846     0.7515    -0.9022 H       
  37 H37            0.9619     2.3811    -0.2085 H       
  38 H38            1.1706     0.9466     0.8245 H       
  39 H39           -2.7156     1.9856    -0.6323 H       
  40 H40           -1.3081     2.9880    -1.0594 H       
  41 H41           -1.4827     1.3577    -1.7521 H       
  42 H42            2.1986     1.6770     5.5500 H       
  43 H43            1.2363    -1.6507     5.2185 H       
  44 H44            1.4521    -3.3906     6.9459 H       
  45 H45            2.3675    -0.4053     9.8532 H       
  46 H46            2.6043     5.4103     4.4656 H       
  47 H47            2.7693     4.8484     2.7811 H       
  48 H48            1.9202     7.2213     2.9682 H       
  49 H49            0.8022     6.1343     2.1088 H       
  50 H50            0.6056     6.8986     4.9497 H       
  51 H51           -1.5462     5.8401     4.8609 H       
  52 H52           -1.1791     5.3449     3.1906 H       
  53 H53           -0.7098     3.4667     4.6726 H       
  54 H54            0.3101     4.4959     5.7123 H       
@<TRIPOS>BOND
   1    1    2 1
   2    1    9 1
   3    1   10 1
   4    1    7 1
   5    2    3 1
   6    2   31 1
   7    2   32 1
   8    3    4 am
   9    3   33 1
  10    4    5 1
  11    4    8 2
  12    5    6 2
  13    5   11 1
  14    6    7 1
  15    6   13 1
  16    7   34 1
  17    7   35 1
  18    9   36 1
  19    9   37 1
  20    9   38 1
  21   10   39 1
  22   10   40 1
  23   10   41 1
  24   11   12 1
  25   12   13 2
  26   12   14 1
  27   13   23 1
  28   14   15 1
  29   14   42 1
  30   15   16 ar
  31   15   20 ar
  32   16   17 ar
  33   16   43 1
  34   17   18 ar
  35   17   44 1
  36   18   19 ar
  37   18   22 1
  38   19   20 ar
  39   19   45 1
  40   20   21 1
  41   23   24 2
  42   23   25 am
  43   25   26 1
  44   25   30 1
  45   26   27 1
  46   26   46 1
  47   26   47 1
  48   27   28 1
  49   27   48 1
  50   27   49 1
  51   28   29 1
  52   28   50 1
  53   29   30 1
  54   29   51 1
  55   29   52 1
  56   30   53 1
  57   30   54 1

#	End of record

