#	Name: ASD01881951
#	Creating user name:	WinNT
#	Creation time:	15. 06. 2019 19:43

#	Modifying user name:	WinNT
#	Modification time:	15. 06. 2019 19:43

#	Program:	/corina/corina34_cracker 3.40 0067  02.08.2006

@<TRIPOS>MOLECULE
ASD01881951
  53   57    0    0    0
SMALL
NO_CHARGES


@<TRIPOS>ATOM
   1 C1            -0.0161     1.3337     0.0094 C.2     
   2 N2             0.0021    -0.0041     0.0020 N.am    
   3 C3             1.2613    -0.4841    -0.0126 C.2     
   4 C4             2.1640     0.7337    -0.0147 C.3     
   5 N5             1.2200     1.8645     0.0004 N.am    
   6 O6            -1.0354     1.9955     0.0180 O.2     
   7 O7             1.6013    -1.6477    -0.0215 O.2     
   8 C8            -1.1986    -0.8435     0.0097 C.3     
   9 C9             1.5609     3.2893     0.0041 C.3     
  10 C10            1.6916     3.7708     1.4261 C.ar    
  11 C11            2.9179     3.7120     2.0635 C.ar    
  12 C12            3.0434     4.1511     3.3658 C.ar    
  13 C13            1.9316     4.6552     4.0387 C.ar    
  14 C14            0.6985     4.7125     3.3912 C.ar    
  15 C15            0.5860     4.2753     2.0870 C.ar    
  16 C16            2.1160     6.5474     9.4236 C.2     
  17 N17            0.8389     6.9187     9.6170 N.am    
  18 C18            0.0796     6.6563     8.3892 C.3     
  19 C19            1.0613     6.0702     7.4048 C.ar    
  20 C20            0.9434     5.6329     6.1102 C.ar    
  21 C21            2.0600     5.1282     5.4383 C.ar    
  22 C22            3.2931     5.0687     6.0827 C.ar    
  23 C23            3.4163     5.5088     7.3888 C.ar    
  24 C24            2.2948     6.0157     8.0633 C.ar    
  25 O25            2.9997     6.6422    10.2535 O.2     
  26 O26            4.6179     5.4500     8.0159 O.3     
  27 C27            5.7149     4.9219     7.2677 C.3     
  28 C28            0.2944     7.4908    10.8509 C.3     
  29 C29            0.3897     6.6464    12.1233 C.3     
  30 C30            1.2872     7.8734    11.9504 C.3     
  31 H31            2.7924     0.7467     0.8759 H       
  32 H32            2.7753     0.7564    -0.9169 H       
  33 H33           -1.5068    -1.0461    -1.0159 H       
  34 H34           -0.9813    -1.7838     0.5163 H       
  35 H35           -2.0010    -0.3250     0.5345 H       
  36 H36            2.5060     3.4381    -0.5182 H       
  37 H37            0.7749     3.8522    -0.4994 H       
  38 H38            3.7786     3.3212     1.5411 H       
  39 H39            4.0012     4.1040     3.8627 H       
  40 H40           -0.1662     5.1020     3.9077 H       
  41 H41           -0.3679     4.3230     1.5830 H       
  42 H42           -0.7213     5.9444     8.5887 H       
  43 H43           -0.3335     7.5861     7.9980 H       
  44 H44           -0.0124     5.6795     5.6096 H       
  45 H45            4.1549     4.6780     5.5621 H       
  46 H46            5.4908     3.8983     6.9676 H       
  47 H47            5.8773     5.5335     6.3802 H       
  48 H48            6.6135     4.9312     7.8847 H       
  49 H49           -0.5881     8.1187    10.7285 H       
  50 H50           -0.4299     6.7191    12.8381 H       
  51 H51            0.8575     5.6653    12.0423 H       
  52 H52            2.3455     7.6995    11.7557 H       
  53 H53            1.0580     8.7533    12.5515 H       
@<TRIPOS>BOND
   1    1    2 am
   2    1    5 am
   3    1    6 2
   4    2    3 am
   5    2    8 1
   6    3    4 1
   7    3    7 2
   8    4    5 1
   9    4   31 1
  10    4   32 1
  11    5    9 1
  12    8   33 1
  13    8   34 1
  14    8   35 1
  15    9   10 1
  16    9   36 1
  17    9   37 1
  18   10   11 ar
  19   10   15 ar
  20   11   12 ar
  21   11   38 1
  22   12   13 ar
  23   12   39 1
  24   13   14 ar
  25   13   21 1
  26   14   15 ar
  27   14   40 1
  28   15   41 1
  29   16   17 am
  30   16   24 1
  31   16   25 2
  32   17   18 1
  33   17   28 1
  34   18   19 1
  35   18   42 1
  36   18   43 1
  37   19   20 ar
  38   19   24 ar
  39   20   21 ar
  40   20   44 1
  41   21   22 ar
  42   22   23 ar
  43   22   45 1
  44   23   24 ar
  45   23   26 1
  46   26   27 1
  47   27   46 1
  48   27   47 1
  49   27   48 1
  50   28   29 1
  51   28   30 1
  52   28   49 1
  53   29   30 1
  54   29   50 1
  55   29   51 1
  56   30   52 1
  57   30   53 1

#	End of record

