#	Name: ASD01883830
#	Creating user name:	WinNT
#	Creation time:	15. 06. 2019 19:47

#	Modifying user name:	WinNT
#	Modification time:	15. 06. 2019 19:47

#	Program:	/corina/corina34_cracker 3.40 0067  02.08.2006

@<TRIPOS>MOLECULE
ASD01883830
  49   51    0    0    0
SMALL
NO_CHARGES


@<TRIPOS>ATOM
   1 N1            -0.0105     1.3262    -0.2309 N.ar    
   2 C2             0.0053     0.0069    -0.2444 C.ar    
   3 C3             1.1967    -0.6873    -0.2090 C.ar    
   4 C4             2.3969     0.0276    -0.1583 C.ar    
   5 C5             2.3338     1.4236    -0.1456 C.ar    
   6 C6             1.0990     2.0382    -0.1834 C.ar    
   7 C7             3.7023    -0.6766    -0.1184 C.2     
   8 C8             3.8941    -2.0669    -0.2253 C.2     
   9 C9             5.2293    -2.3093    -0.1426 C.2     
  10 N10            5.8576    -1.1139     0.0110 N.pl3   
  11 N11            4.8821    -0.1090     0.0174 N.2     
  12 C12            1.0168     3.5429    -0.1703 C.3     
  13 C13            7.3027    -0.9117     0.1419 C.3     
  14 C14            7.9180    -0.7161    -1.2452 C.3     
  15 O15            7.4179     0.4918    -1.8222 O.3     
  16 N16            5.8428    -3.5580    -0.2039 N.pl3   
  17 C17            5.0651    -4.7185    -0.2178 C.ar    
  18 C18            5.4623    -5.8139    -0.9746 C.ar    
  19 C19            4.6914    -6.9596    -0.9857 C.ar    
  20 C20            3.5250    -7.0172    -0.2449 C.ar    
  21 C21            3.1264    -5.9287     0.5091 C.ar    
  22 C22            3.8957    -4.7820     0.5297 C.ar    
  23 C23            2.6861    -8.2691    -0.2599 C.3     
  24 F24            3.1042    -9.1230     0.7663 F       
  25 F25            1.3420    -7.9320    -0.0675 F       
  26 F26            2.8332    -8.9143    -1.4925 F       
  27 C27            9.4404    -0.6295    -1.1202 C.3     
  28 C28            7.3418     0.4664    -3.2489 C.3     
  29 H29           -0.9271    -0.5367    -0.2834 H       
  30 H30            1.2022    -1.7672    -0.2200 H       
  31 H31            3.2382     2.0127    -0.1065 H       
  32 H32            3.1191    -2.8086    -0.3500 H       
  33 H33            0.9601     3.8947     0.8598 H       
  34 H34            1.9035     3.9594    -0.6482 H       
  35 H35            0.1273     3.8630    -0.7130 H       
  36 H36            7.4921    -0.0280     0.7513 H       
  37 H37            7.7500    -1.7841     0.6181 H       
  38 H38            7.6532    -1.5599    -1.8824 H       
  39 H39            6.8101    -3.6220    -0.2369 H       
  40 H40            6.3727    -5.7692    -1.5539 H       
  41 H41            4.9995    -7.8114    -1.5738 H       
  42 H42            2.2147    -5.9770     1.0862 H       
  43 H43            3.5839    -3.9323     1.1188 H       
  44 H44            9.8788    -0.4902    -2.1083 H       
  45 H45            9.7052     0.2143    -0.4830 H       
  46 H46            9.8218    -1.5508    -0.6801 H       
  47 H47            6.9532     1.4190    -3.6090 H       
  48 H48            8.3363     0.2999    -3.6629 H       
  49 H49            6.6779    -0.3390    -3.5631 H       
@<TRIPOS>BOND
   1    1    2 ar
   2    1    6 ar
   3    2    3 ar
   4    2   29 1
   5    3    4 ar
   6    3   30 1
   7    4    5 ar
   8    4    7 1
   9    5    6 ar
  10    5   31 1
  11    6   12 1
  12    7    8 1
  13    7   11 2
  14    8    9 2
  15    8   32 1
  16    9   10 1
  17    9   16 1
  18   10   11 1
  19   10   13 1
  20   12   33 1
  21   12   34 1
  22   12   35 1
  23   13   14 1
  24   13   36 1
  25   13   37 1
  26   14   15 1
  27   14   27 1
  28   14   38 1
  29   15   28 1
  30   16   17 1
  31   16   39 1
  32   17   18 ar
  33   17   22 ar
  34   18   19 ar
  35   18   40 1
  36   19   20 ar
  37   19   41 1
  38   20   21 ar
  39   20   23 1
  40   21   22 ar
  41   21   42 1
  42   22   43 1
  43   23   24 1
  44   23   25 1
  45   23   26 1
  46   27   44 1
  47   27   45 1
  48   27   46 1
  49   28   47 1
  50   28   48 1
  51   28   49 1

#	End of record

