#	Name: ASD00844370
#	Creating user name:	WinNT
#	Creation time:	15. 06. 2019 18:50

#	Modifying user name:	WinNT
#	Modification time:	15. 06. 2019 18:50

#	Program:	/corina/corina34_cracker 3.40 0067  02.08.2006

@<TRIPOS>MOLECULE
ASD00844370
  91   96    0    0    0
SMALL
NO_CHARGES


@<TRIPOS>ATOM
   1 F1            -0.0966    -3.1580     4.7124 F       
   2 C2            -0.0051     1.3862     0.0370 C.ar    
   3 C3             0.0093    -0.0007     0.0190 C.ar    
   4 C4             1.2194    -0.6794    -0.0011 C.ar    
   5 C5             2.4062     0.0272    -0.0032 C.ar    
   6 C6             2.3891     1.4098     0.0152 C.ar    
   7 C7             1.1848     2.0884     0.0348 C.ar    
   8 C8             1.2387    -2.1861    -0.0202 C.3     
   9 C9             0.4941    -2.7108    -1.2293 C.2     
  10 N10            2.6177    -2.6805    -0.0123 N.am    
  11 C11            3.4634    -2.3342    -1.0029 C.2     
  12 N12            4.7590    -2.7005    -0.9417 N.am    
  13 O13            3.0576    -1.6914    -1.9518 O.2     
  14 C14            5.2905    -3.3763     0.2497 C.3     
  15 C15            6.5169    -2.6053     0.7481 C.3     
  16 C16            7.5240    -2.4627    -0.3953 C.3     
  17 C17            6.8890    -1.6715    -1.5411 C.3     
  18 C18            5.6654    -2.4369    -2.0676 C.3     
  19 C19            8.7653    -1.7233     0.1081 C.3     
  20 C20            9.4029    -2.5145     1.2535 C.3     
  21 C21           10.6772    -1.8018     1.7120 C.3     
  22 N22           11.6132    -1.6967     0.5853 N.3     
  23 C23           11.0408    -0.9009    -0.5080 C.3     
  24 C24            9.7774    -1.5867    -1.0328 C.3     
  25 C25           12.9018    -1.1424     1.0214 C.3     
  26 O26            0.7738    -2.5071    -2.3918 O.2     
  27 N27           -0.5343    -3.4452    -0.7729 N.am    
  28 C28            0.4678    -2.7404     1.1557 C.ar    
  29 C29           -0.5784    -3.4829     0.6224 C.ar    
  30 C30            0.6320    -2.6297     2.5181 C.ar    
  31 C31           -0.2536    -3.2642     3.3747 C.ar    
  32 C32           -1.3009    -4.0075     2.8544 C.ar    
  33 C33           -1.4655    -4.1186     1.4880 C.ar    
  34 Cl34          -2.4113    -4.8031     3.9258 Cl      
  35 C35           -0.9926    -5.8303    -2.0673 C.ar    
  36 C36           -1.3201    -6.8764    -1.2246 C.ar    
  37 C37           -0.1745    -6.0500    -3.1601 C.ar    
  38 C38            0.3178    -7.3158    -3.4126 C.ar    
  39 C39           -0.0094    -8.3671    -2.5685 C.ar    
  40 C40           -0.8301    -8.1440    -1.4725 C.ar    
  41 O41            0.4733    -9.6133    -2.8150 O.3     
  42 H42           -1.9594    -6.7023    -0.3717 H       
  43 C43            0.0951   -10.6474    -1.9041 C.3     
  44 C44           13.9240    -1.2782    -0.1089 C.3     
  45 S45           -1.6247    -4.2161    -1.7522 S.o2    
  46 O46           -2.8044    -4.3909    -0.9796 O.2     
  47 O47           -1.6046    -3.5276    -2.9951 O.2     
  48 O48           -1.1597    -0.6936     0.0215 O.3     
  49 C49           -2.3669     0.0708     0.0431 C.3     
  50 C50           -3.5695    -0.8750     0.0427 C.3     
  51 F51           -3.5396    -1.6670    -1.1102 F       
  52 F52           -3.5173    -1.6963     1.1741 F       
  53 H53           -0.9457     1.9168     0.0481 H       
  54 H54            3.3483    -0.5006    -0.0188 H       
  55 H55            3.3182     1.9605     0.0143 H       
  56 H56            1.1742     3.1682     0.0491 H       
  57 H57            2.9222    -3.2571     0.7059 H       
  58 H58            4.5289    -3.3950     1.0294 H       
  59 H59            5.5790    -4.3957    -0.0066 H       
  60 H60            6.2110    -1.6162     1.0890 H       
  61 H61            6.9776    -3.1486     1.5731 H       
  62 H62            7.8107    -3.4519    -0.7522 H       
  63 H63            6.5796    -0.6912    -1.1786 H       
  64 H64            7.6145    -1.5502    -2.3454 H       
  65 H65            5.9872    -3.3785    -2.5128 H       
  66 H66            5.1512    -1.8336    -2.8157 H       
  67 H67            8.4802    -0.7332     0.4638 H       
  68 H68            8.7021    -2.5784     2.0859 H       
  69 H69            9.6514    -3.5181     0.9083 H       
  70 H70           10.4261    -0.8033     2.0698 H       
  71 H71           11.1413    -2.3702     2.5179 H       
  72 H72           10.7880     0.0934    -0.1398 H       
  73 H73           11.7691    -0.8150    -1.3145 H       
  74 H74           10.0317    -2.5757    -1.4139 H       
  75 H75            9.3441    -0.9878    -1.8338 H       
  76 H76           12.7774    -0.0894     1.2742 H       
  77 H77           13.2540    -1.6872     1.8973 H       
  78 H78            1.4500    -2.0495     2.9187 H       
  79 H79           -2.2840    -4.6996     1.0895 H       
  80 H80            0.0796    -5.2313    -3.8171 H       
  81 H81            0.9565    -7.4869    -4.2665 H       
  82 H82           -1.0865    -8.9609    -0.8141 H       
  83 H83            0.4399   -10.3927    -0.9019 H       
  84 H84           -0.9901   -10.7491    -1.9001 H       
  85 H85            0.5472   -11.5891    -2.2154 H       
  86 H86           14.8802    -0.8668     0.2147 H       
  87 H87           14.0484    -2.3311    -0.3617 H       
  88 H88           13.5718    -0.7333    -0.9848 H       
  89 H89           -2.3902     0.6878     0.9414 H       
  90 H90           -2.4076     0.7107    -0.8383 H       
  91 H91           -4.4903    -0.2920     0.0592 H       
@<TRIPOS>BOND
   1    1   31 1
   2    2    3 ar
   3    2    7 ar
   4    2   53 1
   5    3    4 ar
   6    3   48 1
   7    4    5 ar
   8    4    8 1
   9    5    6 ar
  10    5   54 1
  11    6    7 ar
  12    6   55 1
  13    7   56 1
  14    8    9 1
  15    8   10 1
  16    8   28 1
  17    9   26 2
  18    9   27 am
  19   10   11 am
  20   10   57 1
  21   11   12 am
  22   11   13 2
  23   12   14 1
  24   12   18 1
  25   14   15 1
  26   14   58 1
  27   14   59 1
  28   15   16 1
  29   15   60 1
  30   15   61 1
  31   16   17 1
  32   16   19 1
  33   16   62 1
  34   17   18 1
  35   17   63 1
  36   17   64 1
  37   18   65 1
  38   18   66 1
  39   19   20 1
  40   19   24 1
  41   19   67 1
  42   20   21 1
  43   20   68 1
  44   20   69 1
  45   21   22 1
  46   21   70 1
  47   21   71 1
  48   22   23 1
  49   22   25 1
  50   23   24 1
  51   23   72 1
  52   23   73 1
  53   24   74 1
  54   24   75 1
  55   25   44 1
  56   25   76 1
  57   25   77 1
  58   27   45 am
  59   27   29 1
  60   28   29 ar
  61   28   30 ar
  62   29   33 ar
  63   30   31 ar
  64   30   78 1
  65   31   32 ar
  66   32   33 ar
  67   32   34 1
  68   33   79 1
  69   35   36 ar
  70   35   37 ar
  71   35   45 1
  72   36   42 1
  73   36   40 ar
  74   37   38 ar
  75   37   80 1
  76   38   39 ar
  77   38   81 1
  78   39   40 ar
  79   39   41 1
  80   40   82 1
  81   41   43 1
  82   43   83 1
  83   43   84 1
  84   43   85 1
  85   44   86 1
  86   44   87 1
  87   44   88 1
  88   45   46 2
  89   45   47 2
  90   48   49 1
  91   49   50 1
  92   49   89 1
  93   49   90 1
  94   50   51 1
  95   50   52 1
  96   50   91 1

#	End of record

