#	Name: ASD01820104
#	Creating user name:	WinNT
#	Creation time:	15. 06. 2019 19:36

#	Modifying user name:	WinNT
#	Modification time:	15. 06. 2019 19:36

#	Program:	/corina/corina34_cracker 3.40 0067  02.08.2006

@<TRIPOS>MOLECULE
ASD01820104
  80   80    0    0    0
SMALL
NO_CHARGES


@<TRIPOS>ATOM
   1 Br1            0.0000     0.0000     0.0000 Br      
   2 Br2            5.0000     5.0000     5.0000 Br      
   3 O3            14.8855    11.7797    14.7034 O.2     
   4 O4            14.8381    11.8157    10.2005 O.2     
   5 O5            27.3453    26.9477    12.4142 O.3     
   6 O6            30.7620    27.9254    12.3938 O.3     
   7 N7            17.9564    15.9591    12.4448 N.4     
   8 N8            23.5213    22.6247    12.4275 N.4     
   9 N9            15.1873    11.9237    12.4496 N.am    
  10 N10           29.6854    27.0091    12.3917 N.2     
  11 C11           19.3346    16.4675    12.4344 C.3     
  12 C12           17.9764    14.4902    12.4367 C.3     
  13 C13           19.3139    17.9974    12.4428 C.3     
  14 C14           20.7492    18.5269    12.4319 C.3     
  15 C15           17.2689    16.4328    13.6534 C.3     
  16 C16           17.2460    16.4457    11.2547 C.3     
  17 C17           16.5410    13.9606    12.4476 C.3     
  18 C18           20.7285    20.0568    12.4403 C.3     
  19 C19           22.1431    22.1162    12.4379 C.3     
  20 C20           22.1639    20.5864    12.4295 C.3     
  21 C21           16.5617    12.4308    12.4392 C.3     
  22 C22           23.5014    24.0935    12.4355 C.3     
  23 C23           24.2318    22.1380    13.6176 C.3     
  24 C24           24.2089    22.1509    11.2188 C.3     
  25 C25           14.4627    11.6662    11.3458 C.2     
  26 C26           14.4859    11.6488    13.5641 C.2     
  27 C27           24.8823    24.6030    12.4251 C.1     
  28 C28           13.1329    11.1714    11.7602 C.ar    
  29 C29           13.1477    11.1604    13.1699 C.ar    
  30 C30           12.0281    10.7371    13.8673 C.ar    
  31 C31           11.9989    10.7589    11.0799 C.ar    
  32 C32           25.9837    25.0094    12.4168 C.1     
  33 C33           10.8990    10.3302    13.1730 C.ar    
  34 C34           10.8845    10.3409    11.7912 C.ar    
  35 C35           27.3647    25.5189    12.4063 C.3     
  36 C36           28.5417    27.5780    12.4061 C.2     
  37 C37           28.7528    29.0800    12.4127 C.3     
  38 C38           30.2388    29.2109    12.0005 C.3     
  39 H39           19.8618    16.1064    13.3174 H       
  40 H40           19.8448    16.1160    11.5376 H       
  41 H41           18.4866    14.1387    11.5399 H       
  42 H42           18.5036    14.1291    13.3198 H       
  43 H43           18.7867    18.3584    11.5597 H       
  44 H44           18.8037    18.3489    13.3396 H       
  45 H45           21.2764    18.1659    13.3150 H       
  46 H46           21.2594    18.1754    11.5351 H       
  47 H47           17.2541    17.5227    13.6594 H       
  48 H48           16.2463    16.0555    13.6611 H       
  49 H49           17.7960    16.0717    14.5365 H       
  50 H50           17.7561    16.0942    10.3579 H       
  51 H51           16.2234    16.0684    11.2624 H       
  52 H52           17.2312    17.5356    11.2607 H       
  53 H53           16.0308    14.3122    13.3444 H       
  54 H54           16.0138    14.3217    11.5645 H       
  55 H55           20.2013    20.4179    11.5573 H       
  56 H56           20.2183    20.4083    13.3371 H       
  57 H57           21.6329    22.4677    13.3347 H       
  58 H58           21.6159    22.4773    11.5548 H       
  59 H59           22.6911    20.2253    13.3125 H       
  60 H60           22.6741    20.2348    11.5327 H       
  61 H61           17.0889    12.0697    13.3222 H       
  62 H62           17.0719    12.0793    11.5424 H       
  63 H63           22.9742    24.4546    11.5525 H       
  64 H64           22.9912    24.4450    13.3323 H       
  65 H65           23.6817    22.5120    10.3358 H       
  66 H66           25.2315    22.5282    11.2111 H       
  67 H67           24.2236    21.0610    11.2128 H       
  68 H68           24.2465    21.0481    13.6116 H       
  69 H69           25.2544    22.5153    13.6098 H       
  70 H70           23.7216    22.4896    14.5144 H       
  71 H71           11.9827    10.7631    10.0000 H       
  72 H72           12.0348    10.7238    14.9472 H       
  73 H73           10.0000    10.0191    11.2617 H       
  74 H74           10.0256    10.0000    13.7158 H       
  75 H75           27.8749    25.1674    11.5095 H       
  76 H76           27.8919    25.1578    13.2894 H       
  77 H77           28.1045    29.5653    11.6831 H       
  78 H78           28.5900    29.4895    13.4097 H       
  79 H79           30.7272    30.0161    12.5494 H       
  80 H80           30.3344    29.3592    10.9249 H       
@<TRIPOS>BOND
   1    3   26 2
   2    4   25 2
   3    5   35 1
   4    5   36 1
   5    6   10 1
   6    6   38 1
   7    7   11 1
   8    7   12 1
   9    7   15 1
  10    7   16 1
  11    8   19 1
  12    8   22 1
  13    8   23 1
  14    8   24 1
  15    9   21 1
  16    9   25 am
  17    9   26 am
  18   10   36 2
  19   11   13 1
  20   11   39 1
  21   11   40 1
  22   12   17 1
  23   12   41 1
  24   12   42 1
  25   13   14 1
  26   13   43 1
  27   13   44 1
  28   14   18 1
  29   14   45 1
  30   14   46 1
  31   15   47 1
  32   15   48 1
  33   15   49 1
  34   16   50 1
  35   16   51 1
  36   16   52 1
  37   17   21 1
  38   17   53 1
  39   17   54 1
  40   18   20 1
  41   18   55 1
  42   18   56 1
  43   19   20 1
  44   19   57 1
  45   19   58 1
  46   20   59 1
  47   20   60 1
  48   21   61 1
  49   21   62 1
  50   22   27 1
  51   22   63 1
  52   22   64 1
  53   23   68 1
  54   23   69 1
  55   23   70 1
  56   24   65 1
  57   24   66 1
  58   24   67 1
  59   25   28 1
  60   26   29 1
  61   27   32 3
  62   28   29 ar
  63   28   31 ar
  64   29   30 ar
  65   30   33 ar
  66   30   72 1
  67   31   34 ar
  68   31   71 1
  69   32   35 1
  70   33   34 ar
  71   33   74 1
  72   34   73 1
  73   35   75 1
  74   35   76 1
  75   36   37 1
  76   37   38 1
  77   37   77 1
  78   37   78 1
  79   38   79 1
  80   38   80 1

#	End of record

