#	Name: ASD01940490
#	Creating user name:	WinNT
#	Creation time:	15. 06. 2019 20:12

#	Modifying user name:	WinNT
#	Modification time:	15. 06. 2019 20:12

#	Program:	/corina/corina34_cracker 3.40 0067  02.08.2006

@<TRIPOS>MOLECULE
ASD01940490
  44   46    0    0    0
SMALL
NO_CHARGES


@<TRIPOS>ATOM
   1 N1             1.4641     2.5153    -2.4517 N.am    
   2 N2             1.9767     1.4900    -3.2531 N.2     
   3 C3             2.7803     0.7380    -2.5588 C.2     
   4 C4             2.8305     1.2685    -1.1989 C.ar    
   5 C5             3.5095     0.8879    -0.0314 C.ar    
   6 C6             3.3358     1.6265     1.1318 C.ar    
   7 C7             2.4950     2.7350     1.1388 C.ar    
   8 C8             1.8240     3.1152    -0.0037 C.ar    
   9 C9             1.9831     2.3911    -1.1796 C.ar    
  10 C10            0.6069     3.4727    -2.8579 C.2     
  11 O11            0.2251     4.3183    -2.0740 O.2     
  12 O12            0.1739     3.4918    -4.1322 O.3     
  13 N13            4.3533    -0.2255    -0.0390 N.pl3   
  14 C14            3.8709    -1.4712     0.3745 C.ar    
  15 C15            4.6745    -2.6018     0.2643 C.ar    
  16 C16            4.1937    -3.8313     0.6742 C.ar    
  17 C17            2.9152    -3.9373     1.1932 C.ar    
  18 C18            2.1148    -2.8150     1.3032 C.ar    
  19 C19            2.5912    -1.5818     0.9012 C.ar    
  20 I20            2.1904    -5.8026     1.8132 I       
  21 F21            5.9224    -2.4982    -0.2429 F       
  22 N22            4.0102     1.2533     2.3040 N.pl3   
  23 C23           -0.7481     4.5518    -4.4993 C.3     
  24 C24           -0.0808     5.9097    -4.2715 C.3     
  25 C25           -1.1260     4.4105    -5.9752 C.3     
  26 C26           -2.0088     4.4522    -3.6382 C.3     
  27 H27            3.3155    -0.1262    -2.9237 H       
  28 H28            2.3666     3.3029     2.0484 H       
  29 H29            1.1736     3.9772     0.0148 H       
  30 H30            5.2738    -0.1345    -0.3310 H       
  31 H31            4.8161    -4.7098     0.5889 H       
  32 H32            1.1175    -2.9017     1.7084 H       
  33 H33            1.9668    -0.7053     0.9925 H       
  34 H34            4.5362     0.4385     2.3225 H       
  35 H35            3.9505     1.8101     3.0961 H       
  36 H36            0.8173     5.9807    -4.8850 H       
  37 H37           -0.7729     6.7054    -4.5471 H       
  38 H38            0.1884     6.0103    -3.2201 H       
  39 H39           -1.6014     3.4432    -6.1375 H       
  40 H40           -1.8181     5.2062    -6.2508 H       
  41 H41           -0.2279     4.4815    -6.5887 H       
  42 H42           -1.7395     4.5528    -2.5868 H       
  43 H43           -2.7009     5.2479    -3.9138 H       
  44 H44           -2.4841     3.4848    -3.8005 H       
@<TRIPOS>BOND
   1    1    2 1
   2    1    9 1
   3    1   10 am
   4    2    3 2
   5    3    4 1
   6    3   27 1
   7    4    5 ar
   8    4    9 ar
   9    5    6 ar
  10    5   13 1
  11    6    7 ar
  12    6   22 1
  13    7    8 ar
  14    7   28 1
  15    8    9 ar
  16    8   29 1
  17   10   11 2
  18   10   12 1
  19   12   23 1
  20   13   14 1
  21   13   30 1
  22   14   15 ar
  23   14   19 ar
  24   15   16 ar
  25   15   21 1
  26   16   17 ar
  27   16   31 1
  28   17   18 ar
  29   17   20 1
  30   18   19 ar
  31   18   32 1
  32   19   33 1
  33   22   34 1
  34   22   35 1
  35   23   24 1
  36   23   26 1
  37   23   25 1
  38   24   36 1
  39   24   37 1
  40   24   38 1
  41   25   39 1
  42   25   40 1
  43   25   41 1
  44   26   42 1
  45   26   43 1
  46   26   44 1

#	End of record

