#	Name: ASD01916261
#	Creating user name:	WinNT
#	Creation time:	15. 06. 2019 20:07

#	Modifying user name:	WinNT
#	Modification time:	15. 06. 2019 20:07

#	Program:	/corina/corina34_cracker 3.40 0067  02.08.2006

@<TRIPOS>MOLECULE
ASD01916261
  34   36    0    0    0
SMALL
NO_CHARGES


@<TRIPOS>ATOM
   1 C1            -0.0522     1.3252    -0.2459 C.ar    
   2 C2             0.0335    -0.0536    -0.1711 C.ar    
   3 C3             1.2276    -0.6577     0.1714 C.ar    
   4 C4             2.3514     0.1242     0.4429 C.ar    
   5 C5             2.2630     1.5147     0.3670 C.ar    
   6 C6             1.0611     2.1104     0.0228 C.ar    
   7 O7             0.9714     3.4642    -0.0526 O.3     
   8 C8             1.4671     4.0758    -1.1604 C.ar    
   9 C9             1.4017     5.4583    -1.3019 C.ar    
  10 N10            1.8958     6.0158    -2.3950 N.ar    
  11 C11            2.4439     5.2800    -3.3411 C.ar    
  12 N12            2.5243     3.9681    -3.2442 N.ar    
  13 C13            2.0583     3.3361    -2.1796 C.ar    
  14 Cl14          -1.3637    -1.0272    -0.5080 Cl      
  15 C15            3.6309    -0.5186     0.8102 C.2     
  16 N16            3.7136    -1.8618     0.8834 N.am    
  17 O17            4.6083     0.1643     1.0463 O.2     
  18 C18            4.9427    -2.4719     1.1252 C.ar    
  19 C19            5.0434    -3.8573     1.0839 C.ar    
  20 C20            6.2716    -4.4507     1.3258 C.ar    
  21 C21            7.3599    -3.6321     1.6016 C.ar    
  22 C22            7.1861    -2.2627     1.6262 C.ar    
  23 N23            6.0050    -1.7260     1.3868 N.ar    
  24 Cl24           6.4469    -6.1774     1.2858 Cl      
  25 H25           -0.9870     1.7923    -0.5185 H       
  26 H26            1.2914    -1.7343     0.2293 H       
  27 H27            3.1293     2.1246     0.5764 H       
  28 H28            0.9537     6.0673    -0.5307 H       
  29 H29            2.8381     5.7660    -4.2213 H       
  30 H30            2.1275     2.2608    -2.1069 H       
  31 H31            2.9176    -2.4038     0.7677 H       
  32 H32            4.1760    -4.4630     0.8666 H       
  33 H33            8.3314    -4.0624     1.7951 H       
  34 H34            8.0289    -1.6222     1.8405 H       
@<TRIPOS>BOND
   1    1    2 ar
   2    1    6 ar
   3    1   25 1
   4    2    3 ar
   5    2   14 1
   6    3    4 ar
   7    3   26 1
   8    4    5 ar
   9    4   15 1
  10    5    6 ar
  11    5   27 1
  12    6    7 1
  13    7    8 1
  14    8    9 ar
  15    8   13 ar
  16    9   10 ar
  17    9   28 1
  18   10   11 ar
  19   11   12 ar
  20   11   29 1
  21   12   13 ar
  22   13   30 1
  23   15   16 am
  24   15   17 2
  25   16   18 1
  26   16   31 1
  27   18   19 ar
  28   18   23 ar
  29   19   20 ar
  30   19   32 1
  31   20   21 ar
  32   20   24 1
  33   21   22 ar
  34   21   33 1
  35   22   23 ar
  36   22   34 1

#	End of record

