#	Name: ASD07930048
#	Creating user name:	WinNT
#	Creation time:	15. 06. 2019 21:11

#	Modifying user name:	WinNT
#	Modification time:	15. 06. 2019 21:11

#	Program:	/corina/corina34_cracker 3.40 0067  02.08.2006

@<TRIPOS>MOLECULE
ASD07930048
  46   48    0    0    0
SMALL
NO_CHARGES


@<TRIPOS>ATOM
   1 C1            -0.1762     1.0544     1.8508 C.ar    
   2 C2            -0.1180    -0.2485     1.3901 C.ar    
   3 C3            -1.2632    -0.8777     0.9454 C.ar    
   4 C4            -2.4793    -0.1979     0.9612 C.ar    
   5 C5            -2.5321     1.1145     1.4263 C.ar    
   6 C6            -1.3818     1.7321     1.8739 C.ar    
   7 C7            -3.7138    -0.8690     0.4839 C.ar    
   8 C8            -3.6609    -2.1810     0.0184 C.ar    
   9 C9            -4.8123    -2.8004    -0.4244 C.ar    
  10 C10           -6.0167    -2.1208    -0.4070 C.ar    
  11 C11           -6.0748    -0.8177     0.0537 C.ar    
  12 C12           -4.9311    -0.1910     0.5050 C.ar    
  13 S13            1.3297     1.8732     2.4324 Du      
  14 F14            0.9299     3.1956     1.6056 F       
  15 F15            1.7294     0.5508     3.2591 F       
  16 F16            2.6691     2.6015     2.9497 F       
  17 F17            0.5307     2.4326     3.7133 F       
  18 F18            2.1286     1.3138     1.1514 F       
  19 C19           -7.3908    -0.0834     0.0692 C.3     
  20 C20           -8.1508    -0.3563    -1.2322 C.3     
  21 C21           -7.5303     0.4100    -2.3663 C.2     
  22 N22           -6.7788     1.5038    -2.1743 N.am    
  23 C23           -6.4803     1.9524    -0.8992 C.2     
  24 N24           -7.1501     1.3679     0.1624 N.pl3   
  25 C25           -8.2273    -0.5473     1.2633 C.3     
  26 N26           -5.6000     2.8916    -0.7048 N.2     
  27 O27           -7.7164     0.0235    -3.5004 O.2     
  28 C28           -6.2644     2.2364    -3.3340 C.3     
  29 H29            0.8252    -0.7744     1.3780 H       
  30 H30           -1.2166    -1.8949     0.5856 H       
  31 H31           -3.4722     1.6460     1.4407 H       
  32 H32           -1.4215     2.7493     2.2347 H       
  33 H33           -2.7208    -2.7124     0.0037 H       
  34 H34           -4.7725    -3.8175    -0.7855 H       
  35 H35           -6.9151    -2.6091    -0.7548 H       
  36 H36           -4.9777     0.8262     0.8648 H       
  37 H37           -8.1148    -1.4228    -1.4546 H       
  38 H38           -9.1900    -0.0491    -1.1147 H       
  39 H39           -7.4457     1.8863     0.9271 H       
  40 H40           -7.6876    -0.3403     2.1873 H       
  41 H41           -9.1778    -0.0137     1.2703 H       
  42 H42           -8.4126    -1.6184     1.1829 H       
  43 H43           -5.1404     3.2896    -1.4606 H       
  44 H44           -6.9832     3.0009    -3.6289 H       
  45 H45           -5.3172     2.7091    -3.0742 H       
  46 H46           -6.1100     1.5442    -4.1617 H       
@<TRIPOS>BOND
   1    1    2 ar
   2    1   13 1
   3    1    6 ar
   4    2    3 ar
   5    2   29 1
   6    3    4 ar
   7    3   30 1
   8    4    5 ar
   9    4    7 1
  10    5    6 ar
  11    5   31 1
  12    6   32 1
  13    7    8 ar
  14    7   12 ar
  15    8    9 ar
  16    8   33 1
  17    9   10 ar
  18    9   34 1
  19   10   11 ar
  20   10   35 1
  21   11   12 ar
  22   11   19 1
  23   12   36 1
  24   13   14 1
  25   13   15 1
  26   13   16 1
  27   13   17 1
  28   13   18 1
  29   19   20 1
  30   19   25 1
  31   19   24 1
  32   20   21 1
  33   20   37 1
  34   20   38 1
  35   21   22 am
  36   21   27 2
  37   22   23 1
  38   22   28 1
  39   23   24 1
  40   23   26 2
  41   24   39 1
  42   25   40 1
  43   25   41 1
  44   25   42 1
  45   26   43 1
  46   28   44 1
  47   28   45 1
  48   28   46 1

#	End of record

