#	Name: ASD01813685
#	Creating user name:	WinNT
#	Creation time:	15. 06. 2019 19:30

#	Modifying user name:	WinNT
#	Modification time:	15. 06. 2019 19:30

#	Program:	/corina/corina34_cracker 3.40 0067  02.08.2006

@<TRIPOS>MOLECULE
ASD01813685
  50   52    0    0    0
SMALL
NO_CHARGES


@<TRIPOS>ATOM
   1 C1             0.0986     1.4666     0.3528 C.ar    
   2 C2             0.0804     0.0803     0.3426 C.ar    
   3 C3             1.2508    -0.6397     0.2148 C.ar    
   4 C4             2.4690     0.0265     0.0941 C.ar    
   5 C5             2.4860     1.4317     0.1046 C.ar    
   6 C6             1.2934     2.1479     0.2346 C.ar    
   7 N7             3.6452    -0.6821    -0.0337 N.pl3   
   8 C8             4.8399    -0.0892    -0.1522 C.2     
   9 C9             4.9824     1.2837    -0.1545 C.2     
  10 C10            3.7806     2.1238    -0.0239 C.2     
  11 F11            1.2157    -1.9902     0.2071 F       
  12 O12            3.8534     3.3403    -0.0208 O.2     
  13 C13            6.3116     1.8966    -0.2863 C.2     
  14 O14            6.4379     3.2387    -0.2873 O.3     
  15 O15            7.2972     1.1932    -0.3944 O.2     
  16 C16            3.5850    -2.1459    -0.0397 C.3     
  17 C17            3.4403    -2.6369    -1.4571 C.ar    
  18 C18            4.5492    -2.7857    -2.2709 C.ar    
  19 C19            4.3760    -3.2412    -3.5731 C.ar    
  20 N20            3.1683    -3.5296    -4.0312 N.ar    
  21 C21            2.0928    -3.3975    -3.2783 C.ar    
  22 C22            2.1917    -2.9557    -1.9740 C.ar    
  23 N23            5.4847    -3.3953    -4.4041 N.am    
  24 C24            5.3377    -3.9330    -5.6311 C.2     
  25 O25            6.4203    -4.1764    -6.3936 O.3     
  26 O26            4.2281    -4.1982    -6.0493 O.2     
  27 C27            6.1868    -4.7565    -7.7040 C.3     
  28 C28            5.3062    -3.8157    -8.5288 C.3     
  29 C29            7.5248    -4.9593    -8.4178 C.3     
  30 C30            5.4833    -6.1060    -7.5463 C.3     
  31 F31            1.3095     3.4988     0.2443 F       
  32 H32           -0.8263     2.0158     0.4491 H       
  33 H33           -0.8602    -0.4420     0.4360 H       
  34 H34            5.7214    -0.7057    -0.2487 H       
  35 H35            7.3323     3.5954    -0.3764 H       
  36 H36            4.5008    -2.5489     0.3927 H       
  37 H37            2.7292    -2.4767     0.5486 H       
  38 H38            5.5359    -2.5508    -1.8999 H       
  39 H39            1.1232    -3.6420    -3.6862 H       
  40 H40            1.3061    -2.8508    -1.3648 H       
  41 H41            6.3620    -3.1154    -4.0991 H       
  42 H42            5.8074    -2.8543    -8.6411 H       
  43 H43            5.1309    -4.2512    -9.5125 H       
  44 H44            4.3530    -3.6712    -8.0202 H       
  45 H45            8.1522    -5.6295    -7.8303 H       
  46 H46            7.3495    -5.3948    -9.4015 H       
  47 H47            8.0260    -3.9978    -8.5302 H       
  48 H48            4.5301    -5.9616    -7.0378 H       
  49 H49            5.3080    -6.5416    -8.5300 H       
  50 H50            6.1107    -6.7763    -6.9587 H       
@<TRIPOS>BOND
   1    1    2 ar
   2    1    6 ar
   3    1   32 1
   4    2    3 ar
   5    2   33 1
   6    3    4 ar
   7    3   11 1
   8    4    5 ar
   9    4    7 1
  10    5    6 ar
  11    5   10 1
  12    6   31 1
  13    7    8 1
  14    7   16 1
  15    8    9 2
  16    8   34 1
  17    9   10 1
  18    9   13 1
  19   10   12 2
  20   13   14 1
  21   13   15 2
  22   14   35 1
  23   16   17 1
  24   16   36 1
  25   16   37 1
  26   17   18 ar
  27   17   22 ar
  28   18   19 ar
  29   18   38 1
  30   19   20 ar
  31   19   23 1
  32   20   21 ar
  33   21   22 ar
  34   21   39 1
  35   22   40 1
  36   23   24 am
  37   23   41 1
  38   24   25 1
  39   24   26 2
  40   25   27 1
  41   27   28 1
  42   27   29 1
  43   27   30 1
  44   28   42 1
  45   28   43 1
  46   28   44 1
  47   29   45 1
  48   29   46 1
  49   29   47 1
  50   30   48 1
  51   30   49 1
  52   30   50 1

#	End of record

