#	Name: ASD04122051
#	Creating user name:	WinNT
#	Creation time:	15. 06. 2019 20:48

#	Modifying user name:	WinNT
#	Modification time:	15. 06. 2019 20:48

#	Program:	/corina/corina34_cracker 3.40 0067  02.08.2006

@<TRIPOS>MOLECULE
ASD04122051
  68   72    0    0    0
SMALL
NO_CHARGES


@<TRIPOS>ATOM
   1 C1            -1.5674     4.3689    -1.0834 C.ar    
   2 C2            -0.5471     4.1184    -0.1603 C.ar    
   3 N3            -0.5248     3.0548     0.7495 N.pl3   
   4 C4            -0.9462     1.7615     0.6650 C.2     
   5 C5            -1.7173     1.0755    -0.3046 C.2     
   6 C6            -2.3879     1.7223    -1.4283 C.3     
   7 S7            -3.0074     3.3704    -1.0883 S.3     
   8 C8             0.0514     3.2334     1.9846 C.2     
   9 C9             0.0830     2.0522     2.6385 C.2     
  10 C10           -0.5290     1.1035     1.8272 C.2     
  11 C11           -1.4574     5.4244    -1.9791 C.ar    
  12 C12           -0.3550     6.2543    -1.9525 C.ar    
  13 C13            0.6470     6.0303    -1.0253 C.ar    
  14 C14            0.5536     4.9779    -0.1417 C.ar    
  15 C15           -1.4164     1.8064    -2.5772 C.ar    
  16 C16           -0.2044     1.1452    -2.5074 C.ar    
  17 C17            0.6868     1.2225    -3.5612 C.ar    
  18 C18            0.3658     1.9606    -4.6851 C.ar    
  19 C19           -0.8465     2.6210    -4.7553 C.ar    
  20 C20           -1.7395     2.5402    -3.7032 C.ar    
  21 O21           -1.8281    -0.1288    -0.1938 O.2     
  22 C22            1.3378     2.0456    -5.8336 C.3     
  23 S23            1.0148     0.6947    -7.0004 S.3     
  24 C24            2.2269     0.9543    -8.2527 C.ar    
  25 C25            2.2927     0.0942    -9.3442 C.ar    
  26 C26            3.2393     0.2949   -10.3248 C.ar    
  27 C27            4.1329     1.3629   -10.2227 C.ar    
  28 C28            4.0643     2.2249    -9.1263 C.ar    
  29 C29            3.1125     2.0224    -8.1511 C.ar    
  30 C30           -3.5644     0.8426    -1.8562 C.3     
  31 C31           -4.5385     0.6893    -0.6864 C.3     
  32 C32            5.1182     1.5736   -11.2402 C.1     
  33 C33            5.9260     1.7464   -12.0744 C.1     
  34 Si34           7.2334     2.0260   -13.4245 Si      
  35 C35            8.2599     3.5201   -12.9950 C.3     
  36 C36            8.3352     0.5283   -13.5416 C.3     
  37 C37            6.3869     2.3036   -15.0607 C.3     
  38 H38            0.4214     4.1714     2.3713 H       
  39 H39            0.5077     1.8761     3.6157 H       
  40 H40           -0.6585     0.0551     2.0521 H       
  41 H41           -2.2405     5.5971    -2.7024 H       
  42 H42           -0.2749     7.0736    -2.6516 H       
  43 H43            1.5065     6.6834    -0.9945 H       
  44 H44            1.3436     4.8148     0.5765 H       
  45 H45            0.0463     0.5686    -1.6293 H       
  46 H46            1.6339     0.7065    -3.5064 H       
  47 H47           -1.0971     3.1980    -5.6333 H       
  48 H48           -2.6867     3.0562    -3.7581 H       
  49 H49            1.2164     3.0019    -6.3423 H       
  50 H50            2.3564     1.9625    -5.4545 H       
  51 H51            1.6013    -0.7317    -9.4227 H       
  52 H52            3.2905    -0.3736   -11.1716 H       
  53 H53            4.7542     3.0518    -9.0448 H       
  54 H54            3.0589     2.6888    -7.3028 H       
  55 H55           -4.0778     1.3069    -2.6982 H       
  56 H56           -3.1950    -0.1392    -2.1525 H       
  57 H57           -4.0251     0.2249     0.1555 H       
  58 H58           -4.9079     1.6710    -0.3902 H       
  59 H59           -5.3766     0.0626    -0.9913 H       
  60 H60            8.7552     3.3577   -12.0377 H       
  61 H61            9.0099     3.6805   -13.7695 H       
  62 H62            7.6153     4.3963   -12.9264 H       
  63 H63            7.7346    -0.3459   -13.7929 H       
  64 H64            9.0852     0.6887   -14.3161 H       
  65 H65            8.8305     0.3658   -12.5843 H       
  66 H66            5.7422     3.1799   -14.9921 H       
  67 H67            7.1369     2.4640   -15.8352 H       
  68 H68            5.7863     1.4294   -15.3120 H       
@<TRIPOS>BOND
   1    1    2 ar
   2    1   11 ar
   3    1    7 1
   4    2    3 1
   5    2   14 ar
   6    3    8 1
   7    3    4 1
   8    4    5 1
   9    4   10 2
  10    5   21 2
  11    5    6 1
  12    6    7 1
  13    6   15 1
  14    6   30 1
  15    8    9 2
  16    8   38 1
  17    9   10 1
  18    9   39 1
  19   10   40 1
  20   11   12 ar
  21   11   41 1
  22   12   13 ar
  23   12   42 1
  24   13   14 ar
  25   13   43 1
  26   14   44 1
  27   15   16 ar
  28   15   20 ar
  29   16   17 ar
  30   16   45 1
  31   17   18 ar
  32   17   46 1
  33   18   19 ar
  34   18   22 1
  35   19   20 ar
  36   19   47 1
  37   20   48 1
  38   22   23 1
  39   22   49 1
  40   22   50 1
  41   23   24 1
  42   24   25 ar
  43   24   29 ar
  44   25   26 ar
  45   25   51 1
  46   26   27 ar
  47   26   52 1
  48   27   28 ar
  49   27   32 1
  50   28   29 ar
  51   28   53 1
  52   29   54 1
  53   30   31 1
  54   30   55 1
  55   30   56 1
  56   31   57 1
  57   31   58 1
  58   31   59 1
  59   32   33 3
  60   33   34 1
  61   34   35 1
  62   34   36 1
  63   34   37 1
  64   35   60 1
  65   35   61 1
  66   35   62 1
  67   36   63 1
  68   36   64 1
  69   36   65 1
  70   37   66 1
  71   37   67 1
  72   37   68 1

#	End of record

