#	Name: ASD01941027
#	Creating user name:	WinNT
#	Creation time:	15. 06. 2019 20:13

#	Modifying user name:	WinNT
#	Modification time:	15. 06. 2019 20:13

#	Program:	/corina/corina34_cracker 3.40 0067  02.08.2006

@<TRIPOS>MOLECULE
ASD01941027
  50   54    0    0    0
SMALL
NO_CHARGES


@<TRIPOS>ATOM
   1 N1             0.2901     1.9500    -1.5504 N.am    
   2 C2             0.6291     0.6504    -1.5698 C.2     
   3 N3            -0.2629    -0.3353    -1.3750 N.am    
   4 C4            -1.5848    -0.0531    -1.1431 C.2     
   5 C5            -1.9901     1.2820    -1.1122 C.2     
   6 C6            -0.9879     2.3280    -1.3239 C.2     
   7 N7            -2.4949    -1.0410    -0.9458 N.am    
   8 C8            -3.7912    -0.7693    -0.7192 C.2     
   9 C9            -4.2720     0.5410    -0.6738 C.2     
  10 C10           -3.3943     1.5982    -0.8660 C.2     
  11 C11            0.1632    -1.6698    -1.4097 C.ar    
  12 C12            0.3674    -2.3034    -2.6281 C.ar    
  13 C13            0.7878    -3.6187    -2.6590 C.ar    
  14 C14            1.0053    -4.3044    -1.4781 C.ar    
  15 C15            0.8028    -3.6761    -0.2631 C.ar    
  16 C16            0.3875    -2.3594    -0.2256 C.ar    
  17 C17           -2.0531    -2.4373    -0.9814 C.3     
  18 O18           -4.5701    -1.6934    -0.5486 O.2     
  19 N19           -3.8343     2.9061    -0.8274 N.pl3   
  20 C20           -3.4351     3.7482     0.2166 C.ar    
  21 C21           -2.7136     3.2361     1.2860 C.ar    
  22 C22           -2.3207     4.0696     2.3157 C.ar    
  23 C23           -2.6452     5.4138     2.2824 C.ar    
  24 C24           -3.3644     5.9290     1.2182 C.ar    
  25 C25           -3.7556     5.1015     0.1820 C.ar    
  26 O26            1.7905     0.3540    -1.7724 O.2     
  27 C27            1.3184     2.9698    -1.7712 C.3     
  28 O28           -1.2983     3.5047    -1.3051 O.2     
  29 C29            2.0042     2.9970    -3.1386 C.3     
  30 C30            1.0009     4.0898    -2.7640 C.3     
  31 F31           -4.4574     5.6042    -0.8572 F       
  32 Br32          -2.1055     6.5499     3.6945 Br      
  33 H33           -5.3193     0.7300    -0.4900 H       
  34 H34            0.1973    -1.7684    -3.5508 H       
  35 H35            0.9465    -4.1122    -3.6065 H       
  36 H36            1.3337    -5.3329    -1.5049 H       
  37 H37            0.9732    -4.2144     0.6576 H       
  38 H38            0.2298    -1.8691     0.7236 H       
  39 H39           -1.6331    -2.7103    -0.0134 H       
  40 H40           -2.9035    -3.0820    -1.2034 H       
  41 H41           -1.2939    -2.5586    -1.7541 H       
  42 H42           -4.4202     3.2415    -1.5240 H       
  43 H43           -2.4599     2.1867     1.3136 H       
  44 H44           -1.7596     3.6709     3.1479 H       
  45 H45           -3.6167     6.9789     1.1950 H       
  46 H46            1.9221     3.2250    -0.9003 H       
  47 H47            3.0589     3.2706    -3.1674 H       
  48 H48            1.6902     2.2562    -3.8740 H       
  49 H49            0.0269     4.0678    -3.2529 H       
  50 H50            1.3956     5.0822    -2.5463 H       
@<TRIPOS>BOND
   1    1    2 am
   2    1   27 1
   3    1    6 am
   4    2    3 am
   5    2   26 2
   6    3    4 1
   7    3   11 1
   8    4    5 2
   9    4    7 1
  10    5    6 1
  11    5   10 1
  12    6   28 2
  13    7    8 am
  14    7   17 1
  15    8    9 1
  16    8   18 2
  17    9   10 2
  18    9   33 1
  19   10   19 1
  20   11   12 ar
  21   11   16 ar
  22   12   13 ar
  23   12   34 1
  24   13   14 ar
  25   13   35 1
  26   14   15 ar
  27   14   36 1
  28   15   16 ar
  29   15   37 1
  30   16   38 1
  31   17   39 1
  32   17   40 1
  33   17   41 1
  34   19   20 1
  35   19   42 1
  36   20   21 ar
  37   20   25 ar
  38   21   22 ar
  39   21   43 1
  40   22   23 ar
  41   22   44 1
  42   23   24 ar
  43   23   32 1
  44   24   25 ar
  45   24   45 1
  46   25   31 1
  47   27   29 1
  48   27   30 1
  49   27   46 1
  50   29   30 1
  51   29   47 1
  52   29   48 1
  53   30   49 1
  54   30   50 1

#	End of record

