#	Name: ASD01208058
#	Creating user name:	WinNT
#	Creation time:	15. 06. 2019 19:09

#	Modifying user name:	WinNT
#	Modification time:	15. 06. 2019 19:09

#	Program:	/corina/corina34_cracker 3.40 0067  02.08.2006

@<TRIPOS>MOLECULE
ASD01208058
  59   62    0    0    0
SMALL
NO_CHARGES


@<TRIPOS>ATOM
   1 C1            -0.0883     1.4352     0.0252 C.ar    
   2 C2             0.0160     0.0525    -0.0172 C.ar    
   3 C3            -1.1260    -0.7354     0.0265 C.ar    
   4 C4            -2.3751    -0.1434     0.1127 C.ar    
   5 C5            -2.4844     1.2475     0.1556 C.ar    
   6 C6            -1.3332     2.0354     0.1172 C.ar    
   7 C7            -3.8149     1.8836     0.2476 C.2     
   8 C8            -4.0564     3.2264     0.2962 C.2     
   9 N9            -5.0166     1.2259     0.2925 N.pl3   
  10 C10           -6.0211     2.1590     0.3759 C.2     
  11 C11           -5.4395     3.4080     0.3792 C.2     
  12 O12            1.0330     2.2018    -0.0179 O.3     
  13 C13            0.8490     3.6167    -0.0960 C.3     
  14 C14            2.0799     4.2563    -0.7416 C.3     
  15 O15            3.2143     4.0690     0.1070 O.3     
  16 C16            0.6582     4.1847     1.3118 C.3     
  17 O17           -1.0183    -2.0893    -0.0157 O.3     
  18 C18           -1.4880    -2.7328    -1.1172 C.ar    
  19 C19           -1.5223    -4.1217    -1.1504 C.ar    
  20 C20           -1.9391    -2.0047    -2.2074 C.ar    
  21 C21           -2.4162    -2.6610    -3.3263 C.ar    
  22 C22           -2.4444    -4.0426    -3.3601 C.ar    
  23 C23           -2.0007    -4.7728    -2.2726 C.ar    
  24 C24           -7.4625     1.8752     0.4451 C.2     
  25 C25            4.4233     4.6321    -0.4062 C.3     
  26 N26           -8.4082     2.7713     0.5241 N.2     
  27 C27           -9.6438     2.3299     0.5764 C.2     
  28 C28           -9.7909     1.0015     0.5424 C.2     
  29 S29           -8.1910     0.2712     0.4268 S.3     
  30 S30           -3.0535    -4.8749    -4.7887 S.o2    
  31 N31           -1.7650    -5.1212    -5.7993 N.am    
  32 C32           -0.6698    -6.0031    -5.3882 C.3     
  33 O33           -3.4747    -6.1608    -4.3548 O.2     
  34 O34           -3.9135    -3.9579    -5.4512 O.2     
  35 F35           -1.0884    -4.8347    -0.0881 F       
  36 H36            0.9885    -0.4123    -0.0848 H       
  37 H37           -3.2632    -0.7570     0.1464 H       
  38 H38           -1.4134     3.1119     0.1501 H       
  39 H39           -3.3117     4.0084     0.2746 H       
  40 H40           -5.1373     0.2637     0.2691 H       
  41 H41           -5.9575     4.3539     0.4360 H       
  42 H42           -0.0325     3.8357    -0.6987 H       
  43 H43            2.2678     3.7885    -1.7080 H       
  44 H44            1.9036     5.3227    -0.8823 H       
  45 H45            0.5178     5.2640     1.2522 H       
  46 H46           -0.2187     3.7291     1.7717 H       
  47 H47            1.5397     3.9657     1.9144 H       
  48 H48           -1.9180    -0.9252    -2.1823 H       
  49 H49           -2.7678    -2.0936    -4.1753 H       
  50 H50           -2.0235    -5.8522    -2.3017 H       
  51 H51            4.6598     4.1720    -1.3656 H       
  52 H52            4.2956     5.7063    -0.5400 H       
  53 H53            5.2366     4.4475     0.2956 H       
  54 H54          -10.4891     2.9988     0.6433 H       
  55 H55          -10.7292     0.4677     0.5759 H       
  56 H56           -1.7353    -4.6815    -6.6634 H       
  57 H57           -1.0585    -7.0054    -5.2080 H       
  58 H58            0.0817    -6.0411    -6.1768 H       
  59 H59           -0.2177    -5.6190    -4.4738 H       
@<TRIPOS>BOND
   1    1    2 ar
   2    1   12 1
   3    1    6 ar
   4    2    3 ar
   5    2   36 1
   6    3    4 ar
   7    3   17 1
   8    4    5 ar
   9    4   37 1
  10    5    6 ar
  11    5    7 1
  12    6   38 1
  13    7    8 2
  14    7    9 1
  15    8   11 1
  16    8   39 1
  17    9   10 1
  18    9   40 1
  19   10   11 2
  20   10   24 1
  21   11   41 1
  22   12   13 1
  23   13   14 1
  24   13   16 1
  25   13   42 1
  26   14   15 1
  27   14   43 1
  28   14   44 1
  29   15   25 1
  30   16   45 1
  31   16   46 1
  32   16   47 1
  33   17   18 1
  34   18   19 ar
  35   18   20 ar
  36   19   35 1
  37   19   23 ar
  38   20   21 ar
  39   20   48 1
  40   21   22 ar
  41   21   49 1
  42   22   23 ar
  43   22   30 1
  44   23   50 1
  45   24   26 2
  46   24   29 1
  47   25   51 1
  48   25   52 1
  49   25   53 1
  50   26   27 1
  51   27   28 2
  52   27   54 1
  53   28   29 1
  54   28   55 1
  55   30   31 am
  56   30   33 2
  57   30   34 2
  58   31   32 1
  59   31   56 1
  60   32   57 1
  61   32   58 1
  62   32   59 1

#	End of record

