#	Name: ASD06020175
#	Creating user name:	WinNT
#	Creation time:	15. 06. 2019 21:04

#	Modifying user name:	WinNT
#	Modification time:	15. 06. 2019 21:04

#	Program:	/corina/corina34_cracker 3.40 0067  02.08.2006

@<TRIPOS>MOLECULE
ASD06020175
  26   27    0    0    0
SMALL
NO_CHARGES


@<TRIPOS>ATOM
   1 C1            -0.0179     1.4682     0.0101 C.2     
   2 C2             0.0021    -0.0041     0.0020 C.ar    
   3 C3             0.0001    -0.7015    -1.2123 C.ar    
   4 C4             0.0194    -2.0834    -1.2099 C.ar    
   5 C5             0.0402    -2.7754    -0.0126 C.ar    
   6 C6             0.0423    -2.0918     1.1910 C.ar    
   7 C7             0.0290    -0.7132     1.2063 C.ar    
   8 Cl8            1.4736     2.3566     0.0006 Cl      
   9 N9            -1.1570     2.1054     0.0190 N.2     
  10 N10            0.0370     0.0144     2.4954 N.pl3   
  11 O11            0.0605    -0.6048     3.5440 O.2     
  12 O12            0.0201     1.2322     2.5075 O.2     
  13 C13           -1.2100     5.5803    -1.1168 C.ar    
  14 C14           -1.1910     4.2006    -1.1724 C.ar    
  15 C15           -1.1755     3.4727     0.0265 C.ar    
  16 C16           -1.1801     4.1875     1.2334 C.ar    
  17 C17           -1.1995     5.5677     1.1930 C.ar    
  18 N18           -1.2136     6.2124     0.0416 N.ar    
  19 F19           -1.1661     3.5359     2.4168 F       
  20 F20           -1.1879     3.5619    -2.3629 F       
  21 F21           -0.0211    -0.0259    -2.3821 F       
  22 H22            0.0179    -2.6240    -2.1448 H       
  23 H23            0.0545    -3.8553    -0.0168 H       
  24 H24            0.0586    -2.6402     2.1213 H       
  25 H25           -1.2175     6.1500    -2.0343 H       
  26 H26           -1.2035     6.1274     2.1166 H       
@<TRIPOS>BOND
   1    1    2 1
   2    1    8 1
   3    1    9 2
   4    2    3 ar
   5    2    7 ar
   6    3    4 ar
   7    3   21 1
   8    4    5 ar
   9    4   22 1
  10    5    6 ar
  11    5   23 1
  12    6    7 ar
  13    6   24 1
  14    7   10 1
  15    9   15 1
  16   10   11 2
  17   10   12 2
  18   13   14 ar
  19   13   18 ar
  20   13   25 1
  21   14   15 ar
  22   14   20 1
  23   15   16 ar
  24   16   17 ar
  25   16   19 1
  26   17   18 ar
  27   17   26 1

#	End of record

