#	Name: ASD06590015
#	Creating user name:	WinNT
#	Creation time:	15. 06. 2019 21:06

#	Modifying user name:	WinNT
#	Modification time:	15. 06. 2019 21:06

#	Program:	/corina/corina34_cracker 3.40 0067  02.08.2006

@<TRIPOS>MOLECULE
ASD06590015
 366  365    0    0    0
SMALL
NO_CHARGES


@<TRIPOS>ATOM
   1 C1            -3.6867    15.2166    -2.7156 C.2     
   2 O2            -3.8055    14.7001    -3.8064 O.2     
   3 N3            -1.4559    15.8790    -3.4154 N.3     
   4 C4            -2.5233    16.1337    -2.4388 C.3     
   5 C5            -2.9825    17.5886    -2.5530 C.3     
   6 C6            -1.8358    18.5184    -2.1510 C.3     
   7 C7            -2.2950    19.9734    -2.2652 C.3     
   8 N8            -1.1970    20.8636    -1.8802 N.pl3   
   9 C9            -1.3763    22.2261    -1.9044 C.2     
  10 N10           -2.4901    22.7282    -2.3541 N.2     
  11 N11           -0.3745    23.0628    -1.4516 N.am    
  12 C12           -6.8740    14.4374    -1.1040 C.2     
  13 O13           -6.7522    15.3384    -0.3014 O.2     
  14 N14           -4.5981    14.9747    -1.7526 N.am    
  15 C15           -5.7323    14.0880    -2.0235 C.3     
  16 C16           -5.3125    12.6359    -1.7863 C.3     
  17 C17           -4.2392    12.2427    -2.8034 C.3     
  18 C18           -3.8257    10.8125    -2.5698 C.2     
  19 O19           -4.3369    10.1733    -1.6810 O.2     
  20 O20           -2.8895    10.2487    -3.3491 O.3     
  21 C21          -10.0254    12.8823    -0.0972 C.2     
  22 O22           -9.8216    11.8770    -0.7444 O.2     
  23 N23           -8.0303    13.7486    -1.1736 N.am    
  24 C24           -9.1402    14.0882    -0.2797 C.3     
  25 C25           -9.9546    15.2311    -0.8893 C.3     
  26 C26           -9.0768    16.4792    -1.0021 C.3     
  27 O27          -10.4108    14.8505    -2.1889 O.3     
  28 C28          -13.3950    12.3233     0.8276 C.2     
  29 O29          -13.5974    13.5156     0.7361 O.2     
  30 N30          -11.0434    12.9210     0.7851 N.am    
  31 C31          -11.9825    11.7997     0.8696 C.3     
  32 C32          -11.7576    11.0438     2.1807 C.3     
  33 C33          -10.3414    10.5307     2.2281 C.2     
  34 O34           -9.5792    10.7691     1.3154 O.2     
  35 N35           -9.9219     9.8070     3.2849 N.am    
  36 C36          -16.7270    10.9923     1.5270 C.2     
  37 O37          -16.2801     9.9674     1.9967 O.2     
  38 N38          -14.4334    11.4665     0.8917 N.am    
  39 C39          -15.8066    11.9754     0.8508 C.3     
  40 C40          -16.2388    12.1605    -0.6052 C.3     
  41 C41          -20.3543    10.8197     2.2249 C.2     
  42 O42          -20.5903    11.8862     1.6978 O.2     
  43 N43          -18.0470    11.2519     1.6096 N.am    
  44 C44          -18.9418    10.2962     2.2669 C.3     
  45 C45          -23.5191    10.0157     3.8683 C.2     
  46 O46          -22.9879     9.2420     4.6365 O.2     
  47 N47          -21.3553    10.1028     2.7731 N.am    
  48 C48          -22.7284    10.6117     2.7322 C.3     
  49 C49          -23.3765    10.2244     1.4015 C.3     
  50 C50          -22.6490    10.9301     0.2554 C.3     
  51 C51          -23.2971    10.5428    -1.0754 C.3     
  52 N52          -22.6004    11.2185    -2.1728 N.pl3   
  53 C53          -23.0087    11.0217    -3.4708 C.2     
  54 N54          -24.0155    10.2339    -3.7250 N.2     
  55 N55          -22.3549    11.6559    -4.5006 N.pl3   
  56 C56          -27.0498     9.7596     4.7803 C.2     
  57 O57          -27.4155    10.1979     3.7103 O.2     
  58 N58          -24.8165    10.3425     4.0307 N.am    
  59 C59          -25.5851     9.7631     5.1351 C.3     
  60 C60          -25.3687    10.5968     6.3996 C.3     
  61 O61          -25.9113    11.9046     6.2066 O.3     
  62 C62          -29.8895    10.7286     5.7528 C.2     
  63 O63          -29.1287    11.5399     6.2364 O.2     
  64 N64          -27.9532     9.2694     5.6521 N.am    
  65 C65          -29.3845     9.3655     5.3553 C.3     
  66 C66          -30.1414     8.2924     6.1404 C.3     
  67 C67          -29.7378     6.9281     5.6436 C.2     
  68 O68          -28.8714     6.8213     4.8082 O.2     
  69 O69          -30.3408     5.8315     6.1291 O.3     
  70 C70          -33.1555    12.2961     6.2419 C.2     
  71 O71          -33.7412    11.2397     6.1327 O.2     
  72 N72          -31.1867    11.0462     5.5709 N.am    
  73 C73          -31.6776    12.3713     5.9573 C.3     
  74 C74          -31.4274    13.3603     4.8171 C.3     
  75 C75          -29.9436    13.3442     4.4444 C.3     
  76 O76          -32.2081    12.9845     3.6807 O.3     
  77 C77          -35.8843    14.6873     6.6880 C.2     
  78 O78          -35.1947    15.6236     6.3436 O.2     
  79 N79          -33.8266    13.4029     6.6178 N.am    
  80 C80          -35.2634    13.3298     6.8944 C.3     
  81 C81          -35.4821    12.8837     8.3415 C.3     
  82 C82          -34.9626    11.4556     8.5190 C.3     
  83 C83          -35.1813    11.0095     9.9661 C.3     
  84 N84          -34.6838     9.6420    10.1360 N.pl3   
  85 C85          -34.7739     9.0251    11.3613 C.2     
  86 N86          -34.3313     7.8085    11.5125 N.2     
  87 N87          -35.3307     9.6914    12.4272 N.pl3   
  88 C88          -39.0647    16.2900     7.5124 C.2     
  89 O89          -39.4199    15.3574     8.2018 O.2     
  90 N90          -37.2061    14.8609     6.8859 N.am    
  91 C91          -37.8098    16.1805     6.6852 C.3     
  92 C92          -38.1563    16.3632     5.2062 C.3     
  93 C93          -36.8695    16.3767     4.3788 C.3     
  94 C94          -37.2108    16.5567     2.9220 C.2     
  95 O95          -38.3693    16.6636     2.5793 O.2     
  96 N96          -36.2287    16.5988     2.0000 N.am    
  97 C97          -41.9356    18.5475     7.6704 C.2     
  98 O98          -41.6069    19.1264     6.6566 O.2     
  99 N99          -39.7924    17.4241     7.4862 N.am    
 100 C100         -41.0123    17.5305     8.2903 C.3     
 101 C101         -40.6503    17.9693     9.7107 C.3     
 102 C102         -39.8153    16.8784    10.3842 C.3     
 103 C103         -39.4587    17.3105    11.7832 C.2     
 104 O104         -39.8353    18.3853    12.2004 O.2     
 105 N105         -38.7213    16.5028    12.5707 N.am    
 106 C106         -44.9352    20.3656     8.6997 C.2     
 107 O107         -44.8439    19.9792     9.8457 O.2     
 108 N108         -43.1265    18.8137     8.2424 N.am    
 109 C109         -44.0240    19.8023     7.6397 C.3     
 110 C110         -44.8628    19.1321     6.5497 C.3     
 111 C111         -43.9478    18.6704     5.4137 C.3     
 112 C112         -44.7866    18.0002     4.3236 C.3     
 113 N113         -43.9105    17.5581     3.2359 N.pl3   
 114 C114         -44.4434    16.9245     2.1383 C.2     
 115 N115         -43.6640    16.5312     1.1705 N.2     
 116 N116         -45.7986    16.7058     2.0616 N.pl3   
 117 C117         -48.0029    22.3528     8.7616 C.2     
 118 O118         -48.1503    22.2649     7.5610 O.2     
 119 N119         -45.8516    21.2987     8.3741 N.am    
 120 C120         -46.7374    21.8463     9.4045 C.3     
 121 C121         -46.0332    22.9994    10.1222 C.3     
 122 C122         -44.8163    22.4623    10.8783 C.3     
 123 C123         -44.1121    23.6155    11.5961 C.3     
 124 C124         -42.8952    23.0784    12.3522 C.3     
 125 N125         -42.2190    24.1855    13.0413 N.3     
 126 C126         -50.8142    24.4624     9.7661 C.2     
 127 O127         -50.2767    24.7801    10.8058 O.2     
 128 N128         -48.9708    22.9033     9.5209 N.am    
 129 C129         -50.2010    23.3956     8.8960 C.3     
 130 C130         -51.1892    22.2388     8.7344 C.3     
 131 C131         -50.6184    21.2139     7.7522 C.3     
 132 C132         -51.5469    19.9997     7.6852 C.3     
 133 C133         -50.5050    21.8464     6.3636 C.3     
 134 C134         -54.0382    26.1733     9.9706 C.2     
 135 O135         -54.5463    25.4321     9.1562 O.2     
 136 N136         -51.9601    25.0633     9.3888 N.am    
 137 C137         -52.5563    26.1003    10.2346 C.3     
 138 C138         -51.9140    27.4515     9.9141 C.3     
 139 C139         -50.4337    27.4166    10.2992 C.3     
 140 C140         -49.7629    28.7215     9.8652 C.3     
 141 C141         -50.3047    27.2566    11.8153 C.3     
 142 C142         -56.4949    28.0261     9.1961 C.2     
 143 O143         -55.5651    28.5514     8.6212 O.2     
 144 N144         -54.7989    27.0623    10.6396 N.am    
 145 C145         -56.2395    27.1333    10.3830 C.3     
 146 C146         -56.9490    27.7039    11.6125 C.3     
 147 C147         -56.7942    26.7348    12.7863 C.3     
 148 C148         -57.5038    27.3055    14.0158 C.3     
 149 C149         -57.3490    26.3363    15.1896 C.3     
 150 N150         -58.0303    26.8842    16.3701 N.3     
 151 C151         -59.3977    29.6771     7.7092 C.2     
 152 O152         -60.1099    29.3870     8.6412 O.2     
 153 N153         -57.7565    28.2408     8.7735 N.am    
 154 C154         -58.0049    29.1088     7.6197 C.3     
 155 C155         -57.8677    28.2956     6.3310 C.3     
 156 O156         -58.8930    27.3013     6.2837 O.3     
 157 O157         -59.8471    30.5057     6.7536 O.3     
 158 C158           0.8284    22.5547    -1.1180 C.2     
 159 O159           1.0652    21.3811    -1.3099 O.2     
 160 C160          18.1770    24.0423     5.8105 C.3     
 161 C161          17.1102    23.1382     5.1895 C.3     
 162 C162          15.8487    23.9570     4.9081 C.3     
 163 C163          14.7819    23.0529     4.2871 C.3     
 164 C164          13.5204    23.8716     4.0057 C.3     
 165 C165          12.4537    22.9676     3.3847 C.3     
 166 C166          11.1922    23.7863     3.1033 C.3     
 167 C167          10.1254    22.8823     2.4823 C.3     
 168 C168           8.8639    23.7010     2.2009 C.3     
 169 C169           7.7972    22.7970     1.5799 C.3     
 170 C170           6.5356    23.6157     1.2985 C.3     
 171 C171           5.4689    22.7117     0.6775 C.3     
 172 C172           4.2074    23.5304     0.3961 C.3     
 173 C173           3.1406    22.6264    -0.2249 C.3     
 174 C174           1.8791    23.4451    -0.5063 C.3     
 175 H175          -1.7803    16.0429    -4.3566 H       
 176 H176          -0.6395    16.4359    -3.2121 H       
 177 H177          -2.1468    15.9494    -1.4326 H       
 178 H178          -3.2758    17.7974    -3.5818 H       
 179 H179          -3.8332    17.7541    -1.8919 H       
 180 H180          -1.5425    18.3096    -1.1221 H       
 181 H181          -0.9851    18.3529    -2.8120 H       
 182 H182          -2.5883    20.1821    -3.2940 H       
 183 H183          -3.1457    20.1388    -1.6041 H       
 184 H184          -0.3436    20.4915    -1.6082 H       
 185 H185          -2.6462    23.6842    -2.3040 H       
 186 H186          -0.5368    24.0159    -1.3739 H       
 187 H187          -4.5030    15.3878    -0.8801 H       
 188 H188          -6.0495    14.2099    -3.0592 H       
 189 H189          -4.9121    12.5336    -0.7777 H       
 190 H190          -6.1783    11.9839    -1.9014 H       
 191 H191          -4.6396    12.3450    -3.8120 H       
 192 H192          -3.3733    12.8947    -2.6884 H       
 193 H193          -2.6572     9.3291    -3.1609 H       
 194 H194          -8.1277    13.0279    -1.8156 H       
 195 H195          -8.7456    14.3990     0.6876 H       
 196 H196         -10.8121    15.4464    -0.2519 H       
 197 H197          -8.2767    16.2970    -1.7196 H       
 198 H198          -9.6827    17.3202    -1.3392 H       
 199 H199          -8.6457    16.7094    -0.0278 H       
 200 H200         -10.9742    14.0646    -2.1935 H       
 201 H201         -11.1543    13.6912     1.3642 H       
 202 H202         -11.8198    11.1254     0.0289 H       
 203 H203         -11.9289    11.7158     3.0216 H       
 204 H204         -12.4503    10.2043     2.2395 H       
 205 H205         -10.5316     9.6163     4.0148 H       
 206 H206          -9.0104     9.4767     3.3154 H       
 207 H207         -14.2716    10.5129     0.9649 H       
 208 H208         -15.8546    12.9334     1.3686 H       
 209 H209         -16.1908    11.2025    -1.1230 H       
 210 H210         -17.2604    12.5391    -0.6356 H       
 211 H211         -15.5730    12.8716    -1.0942 H       
 212 H212         -18.4045    12.0717     1.2339 H       
 213 H213         -18.6339    10.1644     3.3042 H       
 214 H214         -18.8938     9.3382     1.7492 H       
 215 H215         -21.1665     9.2498     3.1947 H       
 216 H216         -22.7165    11.6974     2.8281 H       
 217 H217         -23.3088     9.1451     1.2649 H       
 218 H218         -24.4242    10.5249     1.4065 H       
 219 H219         -22.7167    12.0094     0.3919 H       
 220 H220         -21.6012    10.6296     0.2504 H       
 221 H221         -23.2293     9.4635    -1.2119 H       
 222 H222         -24.3448    10.8433    -1.0703 H       
 223 H223         -21.8512    11.8048    -1.9836 H       
 224 H224         -24.3035    10.0950    -4.6407 H       
 225 H225         -21.6057    12.2422    -4.3114 H       
 226 H226         -22.6429    11.5170    -5.4164 H       
 227 H227         -25.2414    10.9613     3.4163 H       
 228 H228         -25.2518     8.7406     5.3126 H       
 229 H229         -25.8681    10.1168     7.2412 H       
 230 H230         -24.3011    10.6732     6.6061 H       
 231 H231         -25.8095    12.4893     6.9701 H       
 232 H232         -27.6556     8.8529     6.4761 H       
 233 H233         -29.5451     9.2157     4.2877 H       
 234 H234         -29.9001     8.3793     7.1998 H       
 235 H235         -31.2138     8.4277     5.9997 H       
 236 H236         -30.0481     4.9786     5.7799 H       
 237 H237         -31.7952    10.3973     5.1842 H       
 238 H238         -31.1520    12.7070     6.8514 H       
 239 H239         -31.7108    14.3630     5.1371 H       
 240 H240         -29.6602    12.3416     4.1244 H       
 241 H241         -29.7653    14.0488     3.6321 H       
 242 H242         -29.3481    13.6309     5.3112 H       
 243 H243         -32.0087    12.1013     3.3412 H       
 244 H244         -33.3582    14.2478     6.7051 H       
 245 H245         -35.7274    12.6114     6.2187 H       
 246 H246         -34.9436    13.5523     9.0132 H       
 247 H247         -36.5464    12.9147     8.5744 H       
 248 H248         -35.5010    10.7870     7.8473 H       
 249 H249         -33.8982    11.4246     8.2861 H       
 250 H250         -34.6428    11.6781    10.6377 H       
 251 H251         -36.2457    11.0405    10.1989 H       
 252 H252         -34.2909     9.1719     9.3840 H       
 253 H253         -34.3948     7.3732    12.3770 H       
 254 H254         -35.6601    10.5968    12.3147 H       
 255 H255         -35.3943     9.2562    13.2917 H       
 256 H256         -37.7577    14.1120     7.1613 H       
 257 H257         -37.1044    16.9531     6.9912 H       
 258 H258         -38.7911    15.5404     4.8774 H       
 259 H259         -38.6853    17.3066     5.0708 H       
 260 H260         -36.2347    17.1996     4.7076 H       
 261 H261         -36.3405    15.4333     4.5142 H       
 262 H262         -35.3021    16.5132     2.2741 H       
 263 H263         -36.4484    16.7146     1.0623 H       
 264 H264         -39.5083    18.1699     6.9349 H       
 265 H265         -41.5101    16.5614     8.3252 H       
 266 H266         -40.0747    18.8940     9.6697 H       
 267 H267         -41.5627    18.1343    10.2837 H       
 268 H268         -40.3909    15.9536    10.4252 H       
 269 H269         -38.9029    16.7133     9.8112 H       
 270 H270         -38.4201    15.6432    12.2370 H       
 271 H271         -38.4918    16.7809    13.4712 H       
 272 H272         -43.3894    18.3506     9.0532 H       
 273 H273         -43.4351    20.6080     7.2013 H       
 274 H274         -45.3834    18.2714     6.9695 H       
 275 H275         -45.5916    19.8443     6.1626 H       
 276 H276         -43.4272    19.5311     4.9939 H       
 277 H277         -43.2190    17.9583     5.8007 H       
 278 H278         -45.3072    17.1395     4.7435 H       
 279 H279         -45.5154    18.7123     3.9366 H       
 280 H280         -42.9544    17.7124     3.2900 H       
 281 H281         -44.0400    16.0842     0.3961 H       
 282 H282         -46.3787    16.9985     2.7818 H       
 283 H283         -46.1746    16.2588     1.2872 H       
 284 H284         -45.9246    21.6077     7.4575 H       
 285 H285         -46.9830    21.0659    10.1247 H       
 286 H286         -45.7087    23.7390     9.3902 H       
 287 H287         -46.7228    23.4641    10.8269 H       
 288 H288         -45.1408    21.7228    11.6103 H       
 289 H289         -44.1267    21.9977    10.1736 H       
 290 H290         -43.7876    24.3550    10.8640 H       
 291 H291         -44.8017    24.0801    12.3008 H       
 292 H292         -43.2197    22.3388    13.0842 H       
 293 H293         -42.2056    22.6137    11.6474 H       
 294 H294         -42.8560    24.6735    13.6531 H       
 295 H295         -41.4113    23.8563    13.5484 H       
 296 H296         -48.8529    22.9735    10.4812 H       
 297 H297         -49.9686    23.8145     7.9169 H       
 298 H298         -51.3532    21.7632     9.7013 H       
 299 H299         -52.1359    22.6205     8.3520 H       
 300 H300         -49.6311    20.8982     8.0894 H       
 301 H301         -52.5341    20.3154     7.3480 H       
 302 H302         -51.1402    19.2695     6.9855 H       
 303 H303         -51.6277    19.5491     8.6744 H       
 304 H304         -49.8435    22.7115     6.4114 H       
 305 H305         -50.0983    21.1162     5.6639 H       
 306 H306         -51.4923    22.1621     6.0265 H       
 307 H307         -52.3900    24.8092     8.5572 H       
 308 H308         -52.3856    25.8565    11.2832 H       
 309 H309         -52.0072    27.6541     8.8472 H       
 310 H310         -52.4178    28.2363    10.4784 H       
 311 H311         -49.9487    26.5762     9.8026 H       
 312 H312         -50.2478    29.5619    10.3618 H       
 313 H313         -48.7083    28.6967    10.1396 H       
 314 H314         -49.8548    28.8355     8.7851 H       
 315 H315         -50.7826    26.3270    12.1245 H       
 316 H316         -49.2501    27.2318    12.0897 H       
 317 H317         -50.7896    28.0971    12.3119 H       
 318 H318         -54.3925    27.6551    11.2910 H       
 319 H319         -56.6211    26.1337    10.1746 H       
 320 H320         -56.5063    28.6650    11.8741 H       
 321 H321         -58.0075    27.8398    11.3907 H       
 322 H322         -57.2370    25.7737    12.5247 H       
 323 H323         -55.7357    26.5989    13.0081 H       
 324 H324         -57.0610    28.2665    14.2774 H       
 325 H325         -58.5623    27.4414    13.7940 H       
 326 H326         -57.7917    25.3752    14.9280 H       
 327 H327         -56.2905    26.2004    15.4114 H       
 328 H328         -57.9424    26.2620    17.1595 H       
 329 H329         -57.6817    27.8042    16.5943 H       
 330 H330         -58.5002    27.8207     9.2333 H       
 331 H331         -57.2799    29.9227     7.6147 H       
 332 H332         -57.9644    28.9585     5.4711 H       
 333 H333         -56.8911    27.8119     6.3088 H       
 334 H334         -58.8670    26.7470     5.4918 H       
 335 H335         -60.7471    30.8449     6.8543 H       
 336 H336          17.8000    24.4610     6.7436 H       
 337 H337          19.0757    23.4590     6.0109 H       
 338 H338          18.4152    24.8508     5.1194 H       
 339 H339          17.4872    22.7195     4.2564 H       
 340 H340          16.8720    22.3297     5.8805 H       
 341 H341          15.4717    24.3757     5.8412 H       
 342 H342          16.0869    24.7655     4.2170 H       
 343 H343          15.1589    22.6342     3.3540 H       
 344 H344          14.5437    22.2444     4.9781 H       
 345 H345          13.1434    24.2904     4.9388 H       
 346 H346          13.7586    24.6802     3.3146 H       
 347 H347          12.8307    22.5489     2.4516 H       
 348 H348          12.2155    22.1591     4.0757 H       
 349 H349          10.8152    24.2051     4.0364 H       
 350 H350          11.4304    24.5949     2.4122 H       
 351 H351          10.5024    22.4635     1.5492 H       
 352 H352           9.8872    22.0737     3.1734 H       
 353 H353           8.4869    24.1198     3.1340 H       
 354 H354           9.1021    24.5096     1.5099 H       
 355 H355           8.1741    22.3782     0.6468 H       
 356 H356           7.5589    21.9884     2.2710 H       
 357 H357           6.1587    24.0345     2.2316 H       
 358 H358           6.7739    24.4243     0.6075 H       
 359 H359           5.8459    22.2929    -0.2556 H       
 360 H360           5.2307    21.9031     1.3686 H       
 361 H361           3.8304    23.9492     1.3292 H       
 362 H362           4.4456    24.3390    -0.2949 H       
 363 H363           3.5176    22.2076    -1.1580 H       
 364 H364           2.9024    21.8178     0.4662 H       
 365 H365           2.1173    24.2537    -1.1973 H       
 366 H366           1.5021    23.8639     0.4268 H       
@<TRIPOS>BOND
   1    1    2 2
   2    1    4 1
   3    1   14 am
   4    3    4 1
   5    3  175 1
   6    3  176 1
   7    4    5 1
   8    4  177 1
   9    5    6 1
  10    5  178 1
  11    5  179 1
  12    6    7 1
  13    6  180 1
  14    6  181 1
  15    7    8 1
  16    7  182 1
  17    7  183 1
  18    8    9 1
  19    8  184 1
  20    9   10 2
  21    9   11 1
  22   10  185 1
  23   11  158 am
  24   11  186 1
  25   12   13 2
  26   12   15 1
  27   12   23 am
  28   14   15 1
  29   14  187 1
  30   15   16 1
  31   15  188 1
  32   16   17 1
  33   16  189 1
  34   16  190 1
  35   17   18 1
  36   17  191 1
  37   17  192 1
  38   18   19 2
  39   18   20 1
  40   20  193 1
  41   21   22 2
  42   21   24 1
  43   21   30 am
  44   23   24 1
  45   23  194 1
  46   24   25 1
  47   24  195 1
  48   25   26 1
  49   25   27 1
  50   25  196 1
  51   26  197 1
  52   26  198 1
  53   26  199 1
  54   27  200 1
  55   28   29 2
  56   28   31 1
  57   28   38 am
  58   30   31 1
  59   30  201 1
  60   31   32 1
  61   31  202 1
  62   32   33 1
  63   32  203 1
  64   32  204 1
  65   33   34 2
  66   33   35 am
  67   35  205 1
  68   35  206 1
  69   36   37 2
  70   36   39 1
  71   36   43 am
  72   38   39 1
  73   38  207 1
  74   39   40 1
  75   39  208 1
  76   40  209 1
  77   40  210 1
  78   40  211 1
  79   41   42 2
  80   41   44 1
  81   41   47 am
  82   43   44 1
  83   43  212 1
  84   44  213 1
  85   44  214 1
  86   45   46 2
  87   45   48 1
  88   45   58 am
  89   47   48 1
  90   47  215 1
  91   48   49 1
  92   48  216 1
  93   49   50 1
  94   49  217 1
  95   49  218 1
  96   50   51 1
  97   50  219 1
  98   50  220 1
  99   51   52 1
 100   51  221 1
 101   51  222 1
 102   52   53 1
 103   52  223 1
 104   53   54 2
 105   53   55 1
 106   54  224 1
 107   55  225 1
 108   55  226 1
 109   56   57 2
 110   56   59 1
 111   56   64 am
 112   58   59 1
 113   58  227 1
 114   59   60 1
 115   59  228 1
 116   60   61 1
 117   60  229 1
 118   60  230 1
 119   61  231 1
 120   62   63 2
 121   62   65 1
 122   62   72 am
 123   64   65 1
 124   64  232 1
 125   65   66 1
 126   65  233 1
 127   66   67 1
 128   66  234 1
 129   66  235 1
 130   67   68 2
 131   67   69 1
 132   69  236 1
 133   70   71 2
 134   70   73 1
 135   70   79 am
 136   72   73 1
 137   72  237 1
 138   73   74 1
 139   73  238 1
 140   74   75 1
 141   74   76 1
 142   74  239 1
 143   75  240 1
 144   75  241 1
 145   75  242 1
 146   76  243 1
 147   77   78 2
 148   77   80 1
 149   77   90 am
 150   79   80 1
 151   79  244 1
 152   80   81 1
 153   80  245 1
 154   81   82 1
 155   81  246 1
 156   81  247 1
 157   82   83 1
 158   82  248 1
 159   82  249 1
 160   83   84 1
 161   83  250 1
 162   83  251 1
 163   84   85 1
 164   84  252 1
 165   85   86 2
 166   85   87 1
 167   86  253 1
 168   87  254 1
 169   87  255 1
 170   88   89 2
 171   88   91 1
 172   88   99 am
 173   90   91 1
 174   90  256 1
 175   91   92 1
 176   91  257 1
 177   92   93 1
 178   92  258 1
 179   92  259 1
 180   93   94 1
 181   93  260 1
 182   93  261 1
 183   94   95 2
 184   94   96 am
 185   96  262 1
 186   96  263 1
 187   97   98 2
 188   97  100 1
 189   97  108 am
 190   99  100 1
 191   99  264 1
 192  100  101 1
 193  100  265 1
 194  101  102 1
 195  101  266 1
 196  101  267 1
 197  102  103 1
 198  102  268 1
 199  102  269 1
 200  103  104 2
 201  103  105 am
 202  105  270 1
 203  105  271 1
 204  106  107 2
 205  106  109 1
 206  106  119 am
 207  108  109 1
 208  108  272 1
 209  109  110 1
 210  109  273 1
 211  110  111 1
 212  110  274 1
 213  110  275 1
 214  111  112 1
 215  111  276 1
 216  111  277 1
 217  112  113 1
 218  112  278 1
 219  112  279 1
 220  113  114 1
 221  113  280 1
 222  114  115 2
 223  114  116 1
 224  115  281 1
 225  116  282 1
 226  116  283 1
 227  117  118 2
 228  117  120 1
 229  117  128 am
 230  119  120 1
 231  119  284 1
 232  120  121 1
 233  120  285 1
 234  121  122 1
 235  121  286 1
 236  121  287 1
 237  122  123 1
 238  122  288 1
 239  122  289 1
 240  123  124 1
 241  123  290 1
 242  123  291 1
 243  124  125 1
 244  124  292 1
 245  124  293 1
 246  125  294 1
 247  125  295 1
 248  126  127 2
 249  126  129 1
 250  126  136 am
 251  128  129 1
 252  128  296 1
 253  129  130 1
 254  129  297 1
 255  130  131 1
 256  130  298 1
 257  130  299 1
 258  131  132 1
 259  131  133 1
 260  131  300 1
 261  132  301 1
 262  132  302 1
 263  132  303 1
 264  133  304 1
 265  133  305 1
 266  133  306 1
 267  134  135 2
 268  134  137 1
 269  134  144 am
 270  136  137 1
 271  136  307 1
 272  137  138 1
 273  137  308 1
 274  138  139 1
 275  138  309 1
 276  138  310 1
 277  139  140 1
 278  139  141 1
 279  139  311 1
 280  140  312 1
 281  140  313 1
 282  140  314 1
 283  141  315 1
 284  141  316 1
 285  141  317 1
 286  142  143 2
 287  142  145 1
 288  142  153 am
 289  144  145 1
 290  144  318 1
 291  145  146 1
 292  145  319 1
 293  146  147 1
 294  146  320 1
 295  146  321 1
 296  147  148 1
 297  147  322 1
 298  147  323 1
 299  148  149 1
 300  148  324 1
 301  148  325 1
 302  149  150 1
 303  149  326 1
 304  149  327 1
 305  150  328 1
 306  150  329 1
 307  151  152 2
 308  151  154 1
 309  151  157 1
 310  153  154 1
 311  153  330 1
 312  154  155 1
 313  154  331 1
 314  155  156 1
 315  155  332 1
 316  155  333 1
 317  156  334 1
 318  157  335 1
 319  158  159 2
 320  158  174 1
 321  160  161 1
 322  160  336 1
 323  160  337 1
 324  160  338 1
 325  161  162 1
 326  161  339 1
 327  161  340 1
 328  162  163 1
 329  162  341 1
 330  162  342 1
 331  163  164 1
 332  163  343 1
 333  163  344 1
 334  164  165 1
 335  164  345 1
 336  164  346 1
 337  165  166 1
 338  165  347 1
 339  165  348 1
 340  166  167 1
 341  166  349 1
 342  166  350 1
 343  167  168 1
 344  167  351 1
 345  167  352 1
 346  168  169 1
 347  168  353 1
 348  168  354 1
 349  169  170 1
 350  169  355 1
 351  169  356 1
 352  170  171 1
 353  170  357 1
 354  170  358 1
 355  171  172 1
 356  171  359 1
 357  171  360 1
 358  172  173 1
 359  172  361 1
 360  172  362 1
 361  173  174 1
 362  173  363 1
 363  173  364 1
 364  174  365 1
 365  174  366 1

#	End of record

