#	Name: ASD01915241
#	Creating user name:	WinNT
#	Creation time:	15. 06. 2019 20:05

#	Modifying user name:	WinNT
#	Modification time:	15. 06. 2019 20:05

#	Program:	/corina/corina34_cracker 3.40 0067  02.08.2006

@<TRIPOS>MOLECULE
ASD01915241
  27   28    0    0    0
SMALL
NO_CHARGES


@<TRIPOS>ATOM
   1 C1            -0.0077     1.3434    -0.1947 C.ar    
   2 C2             0.0217    -0.0349     0.0276 C.ar    
   3 C3            -1.1557    -0.7607     0.0446 C.ar    
   4 C4            -2.3677    -0.1270    -0.1586 C.ar    
   5 C5            -2.4092     1.2516    -0.3820 C.ar    
   6 C6            -1.2265     1.9886    -0.3944 C.ar    
   7 F7            -1.1212    -2.0940     0.2601 F       
   8 C8             1.2516     2.1177    -0.2120 C.2     
   9 N9             2.4293     1.4934    -0.0131 N.am    
  10 O10            1.2247     3.3176    -0.4056 O.2     
  11 C11            3.6277     2.2073    -0.1264 C.ar    
  12 C12            3.6895     3.5317     0.2863 C.ar    
  13 C13            4.8732     4.2350     0.1743 C.ar    
  14 C14            5.9978     3.6208    -0.3493 C.ar    
  15 C15            5.9388     2.2990    -0.7625 C.ar    
  16 C16            4.7581     1.5904    -0.6463 C.ar    
  17 Cl17           7.3505     1.5314    -1.4194 Cl      
  18 F18            7.1542     4.3107    -0.4583 F       
  19 C19           -3.6650     1.9067    -0.5928 C.1     
  20 N20           -4.6612     2.4264    -0.7601 N.1     
  21 H21            0.9656    -0.5352     0.1862 H       
  22 H22           -3.2838    -0.6988    -0.1450 H       
  23 H23           -1.2538     3.0544    -0.5663 H       
  24 H24            2.4464     0.5492     0.2085 H       
  25 H25            2.8124     4.0118     0.6943 H       
  26 H26            4.9212     5.2651     0.4953 H       
  27 H27            4.7121     0.5604    -0.9678 H       
@<TRIPOS>BOND
   1    1    2 ar
   2    1    8 1
   3    1    6 ar
   4    2    3 ar
   5    2   21 1
   6    3    4 ar
   7    3    7 1
   8    4    5 ar
   9    4   22 1
  10    5    6 ar
  11    5   19 1
  12    6   23 1
  13    8    9 am
  14    8   10 2
  15    9   11 1
  16    9   24 1
  17   11   12 ar
  18   11   16 ar
  19   12   13 ar
  20   12   25 1
  21   13   14 ar
  22   13   26 1
  23   14   15 ar
  24   14   18 1
  25   15   16 ar
  26   15   17 1
  27   16   27 1
  28   19   20 3

#	End of record

