#	Name: ASD08070527
#	Creating user name:	WinNT
#	Creation time:	15. 06. 2019 21:15

#	Modifying user name:	WinNT
#	Modification time:	15. 06. 2019 21:15

#	Program:	/corina/corina34_cracker 3.40 0067  02.08.2006

@<TRIPOS>MOLECULE
ASD08070527
  46   47    0    0    0
SMALL
NO_CHARGES


@<TRIPOS>ATOM
   1 C1            -0.0168     1.3856     0.0097 C.ar    
   2 C2             0.0021    -0.0041     0.0020 C.ar    
   3 C3             1.2131    -0.6864    -0.0127 C.ar    
   4 C4             2.3993     0.0127    -0.0203 C.ar    
   5 C5             2.3846     1.4101    -0.0131 C.ar    
   6 C6             1.1653     2.0921     0.0022 C.ar    
   7 C7             1.2278    -2.1933    -0.0200 C.3     
   8 C8             3.6539     2.1635    -0.0211 C.2     
   9 O9             4.7140     1.5683    -0.0340 O.2     
  10 N10            3.6377     3.5111    -0.0142 N.am    
  11 C11            4.8974     4.2589    -0.0222 C.3     
  12 C12            5.3867     4.4183    -1.4630 C.3     
  13 C13            4.6778     5.6195     0.5872 C.ar    
  14 C14            5.6343     6.1632     1.4247 C.ar    
  15 C15            5.7285     3.0434    -2.0407 C.3     
  16 O16           -1.1649    -0.6968     0.0094 O.3     
  17 C17           -2.3726     0.0670     0.0250 C.3     
  18 C18            5.4353     7.4103     1.9846 C.ar    
  19 C19            4.2747     8.1174     1.7059 C.ar    
  20 C20            3.3166     7.5697     0.8652 C.ar    
  21 C21            3.5228     6.3246     0.3034 C.ar    
  22 O22            4.0765     9.3442     2.2558 O.3     
  23 C23            2.8586    10.0145     1.9247 C.3     
  24 H24           -0.9597     1.9121     0.0170 H       
  25 H25            3.3397    -0.5182    -0.0314 H       
  26 H26            1.1499     3.1720     0.0074 H       
  27 H27            1.2215    -2.5518    -1.0493 H       
  28 H28            2.1261    -2.5504     0.4837 H       
  29 H29            0.3463    -2.5677     0.5005 H       
  30 H30            2.7919     3.9859    -0.0039 H       
  31 H31            5.6450     3.7174     0.5576 H       
  32 H32            4.6033     4.8803    -2.0638 H       
  33 H33            6.2753     5.0494    -1.4773 H       
  34 H34            6.5375     5.6122     1.6417 H       
  35 H35            6.5119     2.5814    -1.4399 H       
  36 H36            4.8399     2.4122    -2.0265 H       
  37 H37            6.0771     3.1570    -3.0672 H       
  38 H38           -2.4135     0.7002    -0.8612 H       
  39 H39           -3.2289    -0.6074     0.0296 H       
  40 H40           -2.3965     0.6907     0.9186 H       
  41 H41            6.1825     7.8344     2.6390 H       
  42 H42            2.4122     8.1182     0.6467 H       
  43 H43            2.7773     5.8978    -0.3511 H       
  44 H44            2.8085    10.1653     0.8463 H       
  45 H45            2.0114     9.4089     2.2466 H       
  46 H46            2.8270    10.9805     2.4285 H       
@<TRIPOS>BOND
   1    1    2 ar
   2    1    6 ar
   3    1   24 1
   4    2    3 ar
   5    2   16 1
   6    3    4 ar
   7    3    7 1
   8    4    5 ar
   9    4   25 1
  10    5    6 ar
  11    5    8 1
  12    6   26 1
  13    7   27 1
  14    7   28 1
  15    7   29 1
  16    8    9 2
  17    8   10 am
  18   10   11 1
  19   10   30 1
  20   11   12 1
  21   11   13 1
  22   11   31 1
  23   12   15 1
  24   12   32 1
  25   12   33 1
  26   13   14 ar
  27   13   21 ar
  28   14   18 ar
  29   14   34 1
  30   15   35 1
  31   15   36 1
  32   15   37 1
  33   16   17 1
  34   17   38 1
  35   17   39 1
  36   17   40 1
  37   18   19 ar
  38   18   41 1
  39   19   20 ar
  40   19   22 1
  41   20   21 ar
  42   20   42 1
  43   21   43 1
  44   22   23 1
  45   23   44 1
  46   23   45 1
  47   23   46 1

#	End of record

