#	Name: ASD01810245
#	Creating user name:	WinNT
#	Creation time:	15. 06. 2019 19:24

#	Modifying user name:	WinNT
#	Modification time:	15. 06. 2019 19:24

#	Program:	/corina/corina34_cracker 3.40 0067  02.08.2006

@<TRIPOS>MOLECULE
ASD01810245
  41   44    0    0    0
SMALL
NO_CHARGES


@<TRIPOS>ATOM
   1 C1            -0.0168     1.3839    -0.0505 C.ar    
   2 C2             0.0020    -0.0038    -0.0576 C.ar    
   3 C3             1.1973    -0.6918    -0.0524 C.ar    
   4 C4             2.4035     0.0088    -0.0404 C.ar    
   5 C5             2.3796     1.4130    -0.0338 C.ar    
   6 C6             1.1623     2.0949    -0.0387 C.ar    
   7 N7             3.6055    -0.6664    -0.0346 N.pl3   
   8 C8             4.7891    -0.0408    -0.0227 C.2     
   9 C9             4.8932     1.3358    -0.0149 C.2     
  10 C10            3.6618     2.1419    -0.0212 C.2     
  11 O11            3.6999     3.3598    -0.0151 O.2     
  12 C12            6.2115     1.9854    -0.0005 C.2     
  13 O13            6.3000     3.3306     0.0070 O.3     
  14 O14            7.2220     1.3098     0.0046 O.2     
  15 C15            3.5869    -2.1313    -0.0413 C.3     
  16 C16            3.4437    -2.6254    -1.4578 C.ar    
  17 N17            2.2456    -2.7334    -2.0002 N.ar    
  18 N18            2.0717    -3.1486    -3.2022 N.ar    
  19 C19            3.0886    -3.4974    -3.9806 C.ar    
  20 C20            4.3941    -3.4153    -3.4898 C.ar    
  21 C21            4.5718    -2.9607    -2.1921 C.ar    
  22 C22            2.8403    -3.9722    -5.3639 C.ar    
  23 F23            1.2000    -2.0428    -0.0584 F       
  24 C24            3.8907    -4.4380    -6.1517 C.ar    
  25 N25            3.6714    -4.8600    -7.3803 N.ar    
  26 C26            2.4640    -4.8604    -7.9111 C.ar    
  27 C27            1.3693    -4.4139    -7.1931 C.ar    
  28 C28            1.5477    -3.9650    -5.8960 C.ar    
  29 H29           -0.9608     1.9086    -0.0589 H       
  30 H30           -0.9292    -0.5507    -0.0668 H       
  31 H31            1.1450     3.1748    -0.0339 H       
  32 H32            5.6924    -0.6326    -0.0188 H       
  33 H33            7.1886     3.7120     0.0164 H       
  34 H34            4.5175    -2.5084     0.3827 H       
  35 H35            2.7459    -2.4866     0.5542 H       
  36 H36            5.2384    -3.6936    -4.1032 H       
  37 H37            5.5593    -2.8777    -1.7627 H       
  38 H38            4.8938    -4.4530    -5.7517 H       
  39 H39            2.3280    -5.2146    -8.9222 H       
  40 H40            0.3855    -4.4187    -7.6386 H       
  41 H41            0.7107    -3.6109    -5.3126 H       
@<TRIPOS>BOND
   1    1    2 ar
   2    1    6 ar
   3    1   29 1
   4    2    3 ar
   5    2   30 1
   6    3    4 ar
   7    3   23 1
   8    4    5 ar
   9    4    7 1
  10    5    6 ar
  11    5   10 1
  12    6   31 1
  13    7    8 1
  14    7   15 1
  15    8    9 2
  16    8   32 1
  17    9   10 1
  18    9   12 1
  19   10   11 2
  20   12   13 1
  21   12   14 2
  22   13   33 1
  23   15   16 1
  24   15   34 1
  25   15   35 1
  26   16   17 ar
  27   16   21 ar
  28   17   18 ar
  29   18   19 ar
  30   19   20 ar
  31   19   22 1
  32   20   21 ar
  33   20   36 1
  34   21   37 1
  35   22   24 ar
  36   22   28 ar
  37   24   25 ar
  38   24   38 1
  39   25   26 ar
  40   26   27 ar
  41   26   39 1
  42   27   28 ar
  43   27   40 1
  44   28   41 1

#	End of record

