#	Name: ASD01140371
#	Creating user name:	WinNT
#	Creation time:	15. 06. 2019 19:00

#	Modifying user name:	WinNT
#	Modification time:	15. 06. 2019 19:00

#	Program:	/corina/corina34_cracker 3.40 0067  02.08.2006

@<TRIPOS>MOLECULE
ASD01140371
  40   43    0    0    0
SMALL
NO_CHARGES


@<TRIPOS>ATOM
   1 S1            -0.0212     1.7086     0.0114 S.3     
   2 C2             0.0021    -0.0041     0.0020 C.2     
   3 N3             1.2371    -0.4070    -0.0119 N.2     
   4 N4             2.1424     0.4731    -0.0159 N.2     
   5 C5             1.7427     1.7145    -0.0054 C.2     
   6 C6             2.6113     2.9109    -0.0080 C.ar    
   7 C7             3.9996     2.7690    -0.0219 C.ar    
   8 C8             4.8044     3.8895    -0.0247 C.ar    
   9 C9             4.2381     5.1518    -0.0138 C.ar    
  10 C10            2.8626     5.2994     0.0005 C.ar    
  11 C11            2.0464     4.1871    -0.0024 C.ar    
  12 O12           -1.0894    -0.8075     0.0085 O.3     
  13 C13           -1.8177    -4.4464     0.5828 C.3     
  14 C14           -2.0013    -2.9272     0.7283 C.3     
  15 C15           -0.8572    -2.2175    -0.0013 C.3     
  16 C16           -0.7822    -2.7112    -1.4490 C.3     
  17 C17           -0.6812    -4.2450    -1.4469 C.3     
  18 C18            0.4053    -4.6460    -0.4228 C.3     
  19 C19           -0.3456    -4.7791     0.9184 C.3     
  20 N20           -1.9447    -4.7691    -0.8634 N.3     
  21 C21           -2.0589    -6.2189    -1.0712 C.3     
  22 H22            4.4428     1.7842    -0.0301 H       
  23 H23            5.8789     3.7811    -0.0352 H       
  24 H24            4.8726     6.0258    -0.0161 H       
  25 H25            2.4267     6.2875     0.0097 H       
  26 H26            0.9727     4.3036     0.0039 H       
  27 H27           -2.5183    -5.0058     1.2026 H       
  28 H28           -2.9538    -2.6309     0.2892 H       
  29 H29           -1.9842    -2.6570     1.7841 H       
  30 H30            0.0842    -2.4334     0.5038 H       
  31 H31           -1.6799    -2.4052    -1.9861 H       
  32 H32            0.0975    -2.2881    -1.9339 H       
  33 H33           -0.4784    -4.6444    -2.4406 H       
  34 H34            0.8561    -5.5986    -0.7013 H       
  35 H35            1.1678    -3.8700    -0.3552 H       
  36 H36            0.0476    -4.0686     1.6455 H       
  37 H37           -0.2642    -5.7971     1.2994 H       
  38 H38           -2.9411    -6.5921    -0.5510 H       
  39 H39           -2.1505    -6.4270    -2.1372 H       
  40 H40           -1.1699    -6.7132    -0.6795 H       
@<TRIPOS>BOND
   1    1    2 1
   2    1    5 1
   3    2    3 2
   4    2   12 1
   5    3    4 1
   6    4    5 2
   7    5    6 1
   8    6    7 ar
   9    6   11 ar
  10    7    8 ar
  11    7   22 1
  12    8    9 ar
  13    8   23 1
  14    9   10 ar
  15    9   24 1
  16   10   11 ar
  17   10   25 1
  18   11   26 1
  19   12   15 1
  20   13   14 1
  21   13   19 1
  22   13   20 1
  23   13   27 1
  24   14   15 1
  25   14   28 1
  26   14   29 1
  27   15   16 1
  28   15   30 1
  29   16   17 1
  30   16   31 1
  31   16   32 1
  32   17   18 1
  33   17   20 1
  34   17   33 1
  35   18   19 1
  36   18   34 1
  37   18   35 1
  38   19   36 1
  39   19   37 1
  40   20   21 1
  41   21   38 1
  42   21   39 1
  43   21   40 1

#	End of record

