#	Name: ASD01880380
#	Creating user name:	WinNT
#	Creation time:	15. 06. 2019 19:40

#	Modifying user name:	WinNT
#	Modification time:	15. 06. 2019 19:40

#	Program:	/corina/corina34_cracker 3.40 0067  02.08.2006

@<TRIPOS>MOLECULE
ASD01880380
  31   33    0    0    0
SMALL
NO_CHARGES


@<TRIPOS>ATOM
   1 C1             0.0752     1.2723     0.6877 C.ar    
   2 N2             0.0723    -0.0381     0.5237 N.ar    
   3 C3             1.1658    -0.6850     0.1478 C.ar    
   4 C4             2.3556     0.0530    -0.0799 C.ar    
   5 C5             2.3037     1.4370     0.1081 C.ar    
   6 N6             1.1502     1.9996     0.4896 N.ar    
   7 C7             3.6743    -0.3904    -0.4908 C.2     
   8 C8             4.5691     0.5711    -0.6110 C.2     
   9 S9             3.8800     2.1376    -0.2285 S.3     
  10 C10            6.0017     0.3514    -1.0240 C.3     
  11 N11            1.1476    -2.0587    -0.0195 N.pl3   
  12 C12            6.1144     0.4505    -2.5466 C.3     
  13 C13           -0.0568    -2.7614     0.0943 C.ar    
  14 C14           -1.2489    -2.1660    -0.2972 C.ar    
  15 C15           -2.4368    -2.8615    -0.1840 C.ar    
  16 C16           -2.4398    -4.1513     0.3200 C.ar    
  17 C17           -1.2524    -4.7466     0.7114 C.ar    
  18 C18           -0.0614    -4.0573     0.5937 C.ar    
  19 F19           -3.6029    -4.8296     0.4304 F       
  20 H20           -0.8383     1.7626     0.9905 H       
  21 H21            3.9056    -1.4277    -0.6831 H       
  22 H22            6.6333     1.1106    -0.5628 H       
  23 H23            6.3259    -0.6373    -0.6993 H       
  24 H24            1.9699    -2.5344    -0.2157 H       
  25 H25            5.4827    -0.3087    -3.0079 H       
  26 H26            5.7902     1.4392    -2.8714 H       
  27 H27            7.1505     0.2916    -2.8454 H       
  28 H28           -1.2471    -1.1599    -0.6897 H       
  29 H29           -3.3640    -2.3989    -0.4883 H       
  30 H30           -1.2571    -5.7525     1.1045 H       
  31 H31            0.8644    -4.5221     0.8988 H       
@<TRIPOS>BOND
   1    1    2 ar
   2    1    6 ar
   3    1   20 1
   4    2    3 ar
   5    3    4 ar
   6    3   11 1
   7    4    5 ar
   8    4    7 1
   9    5    6 ar
  10    5    9 1
  11    7    8 2
  12    7   21 1
  13    8    9 1
  14    8   10 1
  15   10   12 1
  16   10   22 1
  17   10   23 1
  18   11   13 1
  19   11   24 1
  20   12   25 1
  21   12   26 1
  22   12   27 1
  23   13   14 ar
  24   13   18 ar
  25   14   15 ar
  26   14   28 1
  27   15   16 ar
  28   15   29 1
  29   16   17 ar
  30   16   19 1
  31   17   18 ar
  32   17   30 1
  33   18   31 1

#	End of record

