#	Name: ASD09800058
#	Creating user name:	WinNT
#	Creation time:	15. 06. 2019 21:24

#	Modifying user name:	WinNT
#	Modification time:	15. 06. 2019 21:24

#	Program:	/corina/corina34_cracker 3.40 0067  02.08.2006

@<TRIPOS>MOLECULE
ASD09800058
  82   86    0    0    0
SMALL
NO_CHARGES


@<TRIPOS>ATOM
   1 C1            -0.0234     1.1093     0.2187 C.ar    
   2 C2            -0.1231    -0.2669     0.0562 C.ar    
   3 C3             0.9077    -1.0907     0.4898 C.ar    
   4 C4             2.0279    -0.5397     1.0807 C.ar    
   5 C5             2.1239     0.8303     1.2409 C.ar    
   6 C6             1.0993     1.6535     0.8103 C.ar    
   7 S7             0.7861    -2.8367     0.2866 S.o2    
   8 O8             0.4530    -3.0077    -1.0842 O.2     
   9 O9             2.0084    -3.3365     0.8114 O.2     
  10 C10           -0.6058    -3.3197     1.3449 C.3     
  11 C11           -0.7363    -4.8441     1.3517 C.3     
  12 C12           -0.3588    -2.8226     2.7707 C.3     
  13 N13           -1.2584    -0.8212    -0.5419 N.pl3   
  14 C14           -2.4283    -0.0813    -0.6275 C.ar    
  15 N15           -4.6948     1.3730    -0.7803 N.ar    
  16 C16           -4.6616     0.2134    -1.4212 C.ar    
  17 C17           -3.5163    -0.5576    -1.3643 C.ar    
  18 N18           -2.5334     1.0884    -0.0057 N.ar    
  19 C19           -3.6499     1.7972    -0.0853 C.ar    
  20 N20           -3.7245     3.0151     0.5699 N.pl3   
  21 C21           -4.9332     3.7277     0.5909 C.ar    
  22 C22           -7.3217     5.1350     0.6333 C.ar    
  23 C23           -7.3308     3.7502     0.5293 C.ar    
  24 C24           -6.1401     3.0493     0.5082 C.ar    
  25 C25           -4.9217     5.1162     0.7007 C.ar    
  26 C26           -6.1157     5.8173     0.7217 C.ar    
  27 O27           -3.7394     5.7825     0.7876 O.3     
  28 C28           -3.8034     7.2058     0.8979 C.3     
  29 N29           -8.5288     5.8426     0.6544 N.3     
  30 C30           -9.6754     4.9305     0.5557 C.3     
  31 C31          -10.9665     5.7432     0.4353 C.3     
  32 C32          -11.1125     6.6453     1.6638 C.3     
  33 C33           -9.8830     7.5516     1.7708 C.3     
  34 C34           -8.6232     6.6865     1.8525 C.3     
  35 N35          -12.3201     7.4704     1.5263 N.3     
  36 C36          -12.5570     8.2636     2.7405 C.3     
  37 C37          -13.7748     9.1660     2.5276 C.3     
  38 N38          -14.9452     8.3372     2.2066 N.3     
  39 C39          -14.7082     7.5440     0.9924 C.3     
  40 C40          -13.4904     6.6417     1.2053 C.3     
  41 C41          -16.1527     9.1623     2.0691 C.3     
  42 Cl42          -3.4305    -2.0825    -2.1896 Cl      
  43 H43           -0.8212     1.7530    -0.1214 H       
  44 H44            2.8296    -1.1797     1.4184 H       
  45 H45            3.0009     1.2586     1.7034 H       
  46 H46            1.1775     2.7233     0.9366 H       
  47 H47           -1.5250    -2.8780     0.9603 H       
  48 H48            0.1830    -5.2858     1.7364 H       
  49 H49           -1.5726    -5.1343     1.9876 H       
  50 H50           -0.9122    -5.1982     0.3359 H       
  51 H51            0.5604    -3.2643     3.1554 H       
  52 H52           -0.2658    -1.7366     2.7659 H       
  53 H53           -1.1952    -3.1129     3.4066 H       
  54 H54           -1.2280    -1.7233    -0.8970 H       
  55 H55           -5.5190    -0.1235    -1.9849 H       
  56 H56           -2.9412     3.3755     1.0143 H       
  57 H57           -8.2696     3.2207     0.4606 H       
  58 H58           -6.1493     1.9724     0.4268 H       
  59 H59           -6.1088     6.8943     0.8026 H       
  60 H60           -4.3070     7.6158     0.0224 H       
  61 H61           -4.3585     7.4760     1.7961 H       
  62 H62           -2.7934     7.6112     0.9592 H       
  63 H63           -9.5612     4.2975    -0.3243 H       
  64 H64           -9.7209     4.3065     1.4483 H       
  65 H65          -10.9275     6.3571    -0.4645 H       
  66 H66          -11.8187     5.0660     0.3777 H       
  67 H67          -11.1907     6.0302     2.5603 H       
  68 H68           -9.8268     8.1940     0.8920 H       
  69 H69           -9.9610     8.1665     2.6674 H       
  70 H70           -8.6737     6.0543     2.7390 H       
  71 H71           -7.7448     7.3289     1.9144 H       
  72 H72          -12.7424     7.5951     3.5812 H       
  73 H73          -11.6814     8.8780     2.9502 H       
  74 H74          -13.9699     9.7341     3.4371 H       
  75 H75          -13.5789     9.8529     1.7043 H       
  76 H76          -15.5838     6.9297     0.7827 H       
  77 H77          -14.5229     8.2126     0.1517 H       
  78 H78          -13.2953     6.0736     0.2958 H       
  79 H79          -13.6864     5.9547     2.0286 H       
  80 H80          -16.0079     9.8877     1.2684 H       
  81 H81          -17.0038     8.5241     1.8316 H       
  82 H82          -16.3425     9.6875     3.0052 H       
@<TRIPOS>BOND
   1    1    2 ar
   2    1    6 ar
   3    1   43 1
   4    2    3 ar
   5    2   13 1
   6    3    4 ar
   7    3    7 1
   8    4    5 ar
   9    4   44 1
  10    5    6 ar
  11    5   45 1
  12    6   46 1
  13    7    8 2
  14    7    9 2
  15    7   10 1
  16   10   11 1
  17   10   12 1
  18   10   47 1
  19   11   48 1
  20   11   49 1
  21   11   50 1
  22   12   51 1
  23   12   52 1
  24   12   53 1
  25   13   14 1
  26   13   54 1
  27   14   18 ar
  28   14   17 ar
  29   15   16 ar
  30   15   19 ar
  31   16   17 ar
  32   16   55 1
  33   17   42 1
  34   18   19 ar
  35   19   20 1
  36   20   21 1
  37   20   56 1
  38   21   25 ar
  39   21   24 ar
  40   22   23 ar
  41   22   26 ar
  42   22   29 1
  43   23   24 ar
  44   23   57 1
  45   24   58 1
  46   25   26 ar
  47   25   27 1
  48   26   59 1
  49   27   28 1
  50   28   60 1
  51   28   61 1
  52   28   62 1
  53   29   30 1
  54   29   34 1
  55   30   31 1
  56   30   63 1
  57   30   64 1
  58   31   32 1
  59   31   65 1
  60   31   66 1
  61   32   33 1
  62   32   35 1
  63   32   67 1
  64   33   34 1
  65   33   68 1
  66   33   69 1
  67   34   70 1
  68   34   71 1
  69   35   36 1
  70   35   40 1
  71   36   37 1
  72   36   72 1
  73   36   73 1
  74   37   38 1
  75   37   74 1
  76   37   75 1
  77   38   39 1
  78   38   41 1
  79   39   40 1
  80   39   76 1
  81   39   77 1
  82   40   78 1
  83   40   79 1
  84   41   80 1
  85   41   81 1
  86   41   82 1

#	End of record

