#	Name: ASD01901558
#	Creating user name:	WinNT
#	Creation time:	15. 06. 2019 19:54

#	Modifying user name:	WinNT
#	Modification time:	15. 06. 2019 19:54

#	Program:	/corina/corina34_cracker 3.40 0067  02.08.2006

@<TRIPOS>MOLECULE
ASD01901558
  34   37    0    0    0
SMALL
NO_CHARGES


@<TRIPOS>ATOM
   1 F1             0.5218    -1.0094     0.8460 F       
   2 C2             0.1115     0.2123     0.3017 C.3     
   3 F3             1.2290     0.9158    -0.1603 F       
   4 F4            -0.7648    -0.0225    -0.7633 F       
   5 C5            -0.5904     1.0234     1.3603 C.ar    
   6 N6            -1.8356     1.3994     1.1821 N.ar    
   7 C7            -2.5055     2.1137     2.0767 C.ar    
   8 C8            -1.9399     2.5080     3.2505 C.ar    
   9 C9            -0.6059     2.1426     3.5137 C.ar    
  10 C10            0.0463     2.5081     4.6973 C.ar    
  11 C11            1.3550     2.1179     4.8963 C.ar    
  12 N12            2.0109     2.4779     6.0729 N.pl3   
  13 C13            3.3929     2.6917     6.0657 C.2     
  14 N14            4.1673     2.6895     5.0133 N.2     
  15 N15            5.4905     2.9391     5.3917 N.pl3   
  16 H16            6.2485     2.9870     4.7884 H       
  17 C17            5.5448     3.1058     6.7504 C.ar    
  18 C18            6.5748     3.3708     7.6522 C.ar    
  19 C19            6.2586     3.4777     8.9922 C.ar    
  20 C20            4.9408     3.3206     9.4015 C.ar    
  21 N21            3.9820     3.0712     8.5389 N.ar    
  22 C22            4.2307     2.9646     7.2358 C.ar    
  23 C23            2.0311     1.3638     3.9288 C.ar    
  24 C24            1.4179     0.9973     2.7719 C.ar    
  25 C25            0.0846     1.3728     2.5401 C.ar    
  26 H26           -3.5282     2.3907     1.8678 H       
  27 H27           -2.5030     3.0897     3.9653 H       
  28 H28           -0.4695     3.0898     5.4470 H       
  29 H29            1.5087     2.5799     6.8964 H       
  30 H30            7.5929     3.4890     7.3118 H       
  31 H31            7.0318     3.6819     9.7180 H       
  32 H32            4.6993     3.4049    10.4508 H       
  33 H33            3.0552     1.0691     4.1043 H       
  34 H34            1.9528     0.4157     2.0358 H       
@<TRIPOS>BOND
   1    1    2 1
   2    2    3 1
   3    2    4 1
   4    2    5 1
   5    5   25 ar
   6    5    6 ar
   7    6    7 ar
   8    7    8 ar
   9    7   26 1
  10    8    9 ar
  11    8   27 1
  12    9   25 ar
  13    9   10 ar
  14   10   11 ar
  15   10   28 1
  16   11   12 1
  17   11   23 ar
  18   12   13 1
  19   12   29 1
  20   13   22 1
  21   13   14 2
  22   14   15 1
  23   15   16 1
  24   15   17 1
  25   17   22 ar
  26   17   18 ar
  27   18   19 ar
  28   18   30 1
  29   19   20 ar
  30   19   31 1
  31   20   21 ar
  32   20   32 1
  33   21   22 ar
  34   23   24 ar
  35   23   33 1
  36   24   25 ar
  37   24   34 1

#	End of record

