#	Name: ASD08070345
#	Creating user name:	WinNT
#	Creation time:	15. 06. 2019 21:14

#	Modifying user name:	WinNT
#	Modification time:	15. 06. 2019 21:14

#	Program:	/corina/corina34_cracker 3.40 0067  02.08.2006

@<TRIPOS>MOLECULE
ASD08070345
  40   40    0    0    0
SMALL
NO_CHARGES


@<TRIPOS>ATOM
   1 C1            -0.0179     1.4713     0.0101 C.2     
   2 C2             0.0021    -0.0041     0.0020 C.ar    
   3 C3             0.0232    -0.7133     1.2074 C.ar    
   4 C4             0.0414    -2.0971     1.1917 C.ar    
   5 C5             0.0388    -2.7794    -0.0132 C.ar    
   6 C6             0.0184    -2.0842    -1.2106 C.ar    
   7 C7            -0.0058    -0.7004    -1.2110 C.ar    
   8 O8             1.0266     2.0935     0.0035 O.2     
   9 N9            -1.1942     2.1293     0.0193 N.am    
  10 C10            0.0587    -4.2863    -0.0215 C.3     
  11 F11           -0.0313    -0.0239    -2.3801 F       
  12 F12            0.0165    -2.7585    -2.3813 F       
  13 F13            0.0622    -2.7839     2.3549 F       
  14 F14            0.0262    -0.0493     2.3839 F       
  15 C15           -2.2806     3.5921    -2.2321 C.3     
  16 C16           -1.1021     4.1136    -1.4074 C.3     
  17 C17           -1.2140     3.5941     0.0273 C.3     
  18 C18           -2.5253     4.0830     0.6459 C.3     
  19 C19           -2.6372     3.5635     2.0806 C.3     
  20 C20           -2.5460     5.6128     0.6543 C.3     
  21 C21            0.2092     3.6247    -2.0259 C.3     
  22 H22           -2.0275     1.6329     0.0205 H       
  23 H23           -0.9641    -4.6632    -0.0136 H       
  24 H24            0.5686    -4.6380    -0.9184 H       
  25 H25            0.5859    -4.6475     0.8614 H       
  26 H26           -3.2147     3.9404    -1.7914 H       
  27 H27           -2.2008     3.9622    -3.2542 H       
  28 H28           -2.2658     2.5022    -2.2381 H       
  29 H29           -1.1168     5.2035    -1.4014 H       
  30 H30           -0.3744     3.9657     0.6148 H       
  31 H31           -3.3649     3.7115     0.0584 H       
  32 H32           -3.5714     3.9118     2.5213 H       
  33 H33           -2.6225     2.4736     2.0746 H       
  34 H34           -1.7977     3.9351     2.6681 H       
  35 H35           -2.4662     5.9829    -0.3679 H       
  36 H36           -3.4802     5.9611     1.0949 H       
  37 H37           -1.7064     5.9844     1.2418 H       
  38 H38            0.2240     2.5348    -2.0319 H       
  39 H39            0.2890     3.9948    -3.0481 H       
  40 H40            1.0488     3.9963    -1.4384 H       
@<TRIPOS>BOND
   1    1    2 1
   2    1    8 2
   3    1    9 am
   4    2    3 ar
   5    2    7 ar
   6    3    4 ar
   7    3   14 1
   8    4    5 ar
   9    4   13 1
  10    5    6 ar
  11    5   10 1
  12    6    7 ar
  13    6   12 1
  14    7   11 1
  15    9   17 1
  16    9   22 1
  17   10   23 1
  18   10   24 1
  19   10   25 1
  20   15   16 1
  21   15   26 1
  22   15   27 1
  23   15   28 1
  24   16   17 1
  25   16   21 1
  26   16   29 1
  27   17   18 1
  28   17   30 1
  29   18   19 1
  30   18   20 1
  31   18   31 1
  32   19   32 1
  33   19   33 1
  34   19   34 1
  35   20   35 1
  36   20   36 1
  37   20   37 1
  38   21   38 1
  39   21   39 1
  40   21   40 1

#	End of record

