#	Name: ASD02590017
#	Creating user name:	WinNT
#	Creation time:	15. 06. 2019 20:25

#	Modifying user name:	WinNT
#	Modification time:	15. 06. 2019 20:25

#	Program:	/corina/corina34_cracker 3.40 0067  02.08.2006

@<TRIPOS>MOLECULE
ASD02590017
  24   26    0    0    0
SMALL
NO_CHARGES


@<TRIPOS>ATOM
   1 C1            -0.0168     1.3877     0.0097 C.ar    
   2 C2             0.0021    -0.0041     0.0020 C.ar    
   3 C3            -1.1787    -0.7189     0.0099 C.ar    
   4 C4            -2.3931    -0.0472     0.0256 C.ar    
   5 C5            -2.4184     1.3592     0.0334 C.ar    
   6 C6            -1.2129     2.0698     0.0305 C.ar    
   7 N7            -3.7124    -0.4558     0.0372 N.pl3   
   8 C8            -4.4858     0.6739     0.0514 C.2     
   9 N9            -3.7194     1.7361     0.0491 N.2     
  10 C10           -5.9654     0.6922     0.0666 C.ar    
  11 C11           -6.6418     1.9111     0.0803 C.ar    
  12 C12           -8.0264     1.9117     0.0939 C.ar    
  13 C13           -8.6892     0.6932     0.0935 C.ar    
  14 C14           -7.9543    -0.4796     0.0795 C.ar    
  15 N15           -6.6383    -0.4527     0.0616 N.ar    
  16 F16            1.1467     2.0743     0.0022 F       
  17 F17            1.1834    -0.6593    -0.0137 F       
  18 H18           -1.1576    -1.7987     0.0035 H       
  19 H19           -1.2206     3.1498     0.0368 H       
  20 H20           -4.0314    -1.3718     0.0354 H       
  21 H21           -6.0937     2.8417     0.0806 H       
  22 H22           -8.5780     2.8402     0.1051 H       
  23 H23           -9.7687     0.6599     0.1043 H       
  24 H24           -8.4677    -1.4298     0.0791 H       
@<TRIPOS>BOND
   1    1    2 ar
   2    1   16 1
   3    1    6 ar
   4    2    3 ar
   5    2   17 1
   6    3    4 ar
   7    3   18 1
   8    4    5 ar
   9    4    7 1
  10    5    6 ar
  11    5    9 1
  12    6   19 1
  13    7    8 1
  14    7   20 1
  15    8    9 2
  16    8   10 1
  17   10   11 ar
  18   10   15 ar
  19   11   12 ar
  20   11   21 1
  21   12   13 ar
  22   12   22 1
  23   13   14 ar
  24   13   23 1
  25   14   15 ar
  26   14   24 1

#	End of record

