#	Name: ASD02038119
#	Creating user name:	WinNT
#	Creation time:	15. 06. 2019 20:16

#	Modifying user name:	WinNT
#	Modification time:	15. 06. 2019 20:16

#	Program:	/corina/corina34_cracker 3.40 0067  02.08.2006

@<TRIPOS>MOLECULE
ASD02038119
  48   50    0    0    0
SMALL
NO_CHARGES


@<TRIPOS>ATOM
   1 C1            -0.0604     1.3473     0.2909 C.ar    
   2 C2            -0.0219    -0.0281     0.1536 C.ar    
   3 C3             1.1155     2.0720     0.3579 C.ar    
   4 C4             2.3342     1.4225     0.2871 C.ar    
   5 C5             2.3753     0.0392     0.1489 C.ar    
   6 C6             1.1920    -0.6838     0.0827 C.ar    
   7 N7             3.6055    -0.6217     0.0765 N.3     
   8 C8             7.4758    -2.0811     0.9353 C.3     
   9 C9             7.6952    -2.8920     2.2141 C.3     
  10 C10            8.9835    -3.7075     2.0861 C.3     
  11 O11            7.8022    -2.0042     3.3287 O.3     
  12 O12            9.1281    -4.5521     3.2297 O.3     
  13 C13           10.2293    -5.3487     3.2735 C.ar    
  14 C14           10.4317    -6.1932     4.3550 C.ar    
  15 C15           11.5503    -7.0024     4.3995 C.ar    
  16 C16           12.4709    -6.9707     3.3625 C.ar    
  17 C17           12.2679    -6.1269     2.2806 C.ar    
  18 C18           11.1471    -5.3209     2.2340 C.ar    
  19 O19           13.5725    -7.7666     3.4067 O.3     
  20 C20            3.7490    -1.5892     1.1733 C.3     
  21 C21            5.0698    -2.3457     1.0131 C.3     
  22 N22            6.1835    -1.3868     1.0114 N.3     
  23 C23            6.0400    -0.4194    -0.0854 C.3     
  24 C24            4.7192     0.3371     0.0748 C.3     
  25 F25            3.4830     2.1305     0.3515 F       
  26 H26           -1.0111     1.8572     0.3416 H       
  27 H27           -0.9424    -0.5906     0.1020 H       
  28 H28            1.0819     3.1462     0.4651 H       
  29 H29            1.2204    -1.7582    -0.0243 H       
  30 H30            8.2759    -1.3487     0.8277 H       
  31 H31            7.4783    -2.7509     0.0754 H       
  32 H32            6.8522    -3.5660     2.3660 H       
  33 H33            8.9379    -4.3199     1.1856 H       
  34 H34            9.8364    -3.0318     2.0233 H       
  35 H35            8.5330    -1.3745     3.2612 H       
  36 H36            9.7150    -6.2178     5.1624 H       
  37 H37           11.7083    -7.6594     5.2419 H       
  38 H38           12.9847    -6.1022     1.4731 H       
  39 H39           10.9891    -4.6638     1.3916 H       
  40 H40           13.4455    -8.6368     3.0043 H       
  41 H41            3.7458    -1.0610     2.1268 H       
  42 H42            2.9196    -2.2958     1.1458 H       
  43 H43            5.1920    -3.0435     1.8416 H       
  44 H44            5.0621    -2.8957     0.0721 H       
  45 H45            6.8695     0.2873    -0.0579 H       
  46 H46            6.0433    -0.9475    -1.0389 H       
  47 H47            4.5970     1.0349    -0.7537 H       
  48 H48            4.7269     0.8872     1.0158 H       
@<TRIPOS>BOND
   1    1    2 ar
   2    1    3 ar
   3    1   26 1
   4    2    6 ar
   5    2   27 1
   6    3    4 ar
   7    3   28 1
   8    4    5 ar
   9    4   25 1
  10    5    6 ar
  11    5    7 1
  12    6   29 1
  13    7   20 1
  14    7   24 1
  15    8    9 1
  16    8   22 1
  17    8   30 1
  18    8   31 1
  19    9   11 1
  20    9   10 1
  21    9   32 1
  22   10   12 1
  23   10   33 1
  24   10   34 1
  25   11   35 1
  26   12   13 1
  27   13   14 ar
  28   13   18 ar
  29   14   15 ar
  30   14   36 1
  31   15   16 ar
  32   15   37 1
  33   16   17 ar
  34   16   19 1
  35   17   18 ar
  36   17   38 1
  37   18   39 1
  38   19   40 1
  39   20   21 1
  40   20   41 1
  41   20   42 1
  42   21   22 1
  43   21   43 1
  44   21   44 1
  45   22   23 1
  46   23   24 1
  47   23   45 1
  48   23   46 1
  49   24   47 1
  50   24   48 1

#	End of record

