#	Name: ASD00311221
#	Creating user name:	WinNT
#	Creation time:	15. 06. 2019 18:34

#	Modifying user name:	WinNT
#	Modification time:	15. 06. 2019 18:34

#	Program:	/corina/corina34_cracker 3.40 0067  02.08.2006

@<TRIPOS>MOLECULE
ASD00311221
  43   46    0    0    0
SMALL
NO_CHARGES


@<TRIPOS>ATOM
   1 C1            -0.0167     1.3814     0.0096 C.2     
   2 C2             0.0021    -0.0041     0.0020 C.2     
   3 C3             1.2601    -0.6816    -0.0136 C.2     
   4 C4             2.4329     0.0595    -0.0208 C.2     
   5 C5             2.3591     1.4686    -0.0126 C.2     
   6 N6             1.1694     2.0866     0.0021 N.am    
   7 C7            -1.3351    -0.5777     0.0117 C.2     
   8 C8            -2.3168     0.3693     0.0261 C.2     
   9 S9            -1.6194     1.9759     0.0351 S.3     
  10 C10           -3.7511     0.0831     0.0378 C.2     
  11 O11           -4.1417    -1.0700     0.0349 O.2     
  12 N12           -4.6403     1.0958     0.0518 N.am    
  13 O13            3.3846     2.1288    -0.0184 O.2     
  14 C14           -6.0769     0.8091     0.0634 C.3     
  15 O15            1.3071    -2.0337    -0.0209 O.3     
  16 C16            3.7484    -0.6212    -0.0365 C.ar    
  17 C17            4.5943    -0.4846    -1.1370 C.ar    
  18 C18            5.8185    -1.1212    -1.1458 C.ar    
  19 C19            6.2074    -1.8936    -0.0659 C.ar    
  20 C20            5.3726    -2.0332     1.0283 C.ar    
  21 C21            4.1486    -1.3965     1.0515 C.ar    
  22 C22           -1.6016    -2.0331     0.0056 C.ar    
  23 C23           -2.2188    -2.6370     1.1019 C.ar    
  24 C24           -2.4644    -3.9945     1.0900 C.ar    
  25 C25           -2.0999    -4.7570    -0.0055 C.ar    
  26 C26           -1.4876    -4.1643    -1.0955 C.ar    
  27 C27           -1.2420    -2.8067    -1.0987 C.ar    
  28 H28            1.1417     3.0562     0.0076 H       
  29 H29           -4.3290     2.0145     0.0541 H       
  30 H30           -6.3244     0.2291     0.9525 H       
  31 H31           -6.6342     1.7458     0.0739 H       
  32 H32           -6.3409     0.2391    -0.8274 H       
  33 H33            2.2036    -2.3961    -0.0314 H       
  34 H34            4.2916     0.1178    -1.9807 H       
  35 H35            6.4742    -1.0165    -1.9975 H       
  36 H36            7.1666    -2.3899    -0.0774 H       
  37 H37            5.6815    -2.6378     1.8682 H       
  38 H38            3.4999    -1.5021     1.9085 H       
  39 H39           -2.5031    -2.0431     1.9579 H       
  40 H40           -2.9420    -4.4631     1.9378 H       
  41 H41           -2.2937    -5.8195    -0.0096 H       
  42 H42           -1.2055    -4.7650    -1.9476 H       
  43 H43           -0.7684    -2.3445    -1.9522 H       
@<TRIPOS>BOND
   1    1    2 2
   2    1    6 1
   3    1    9 1
   4    2    3 1
   5    2    7 1
   6    3    4 2
   7    3   15 1
   8    4    5 1
   9    4   16 1
  10    5    6 am
  11    5   13 2
  12    6   28 1
  13    7    8 2
  14    7   22 1
  15    8    9 1
  16    8   10 1
  17   10   11 2
  18   10   12 am
  19   12   14 1
  20   12   29 1
  21   14   30 1
  22   14   31 1
  23   14   32 1
  24   15   33 1
  25   16   17 ar
  26   16   21 ar
  27   17   18 ar
  28   17   34 1
  29   18   19 ar
  30   18   35 1
  31   19   20 ar
  32   19   36 1
  33   20   21 ar
  34   20   37 1
  35   21   38 1
  36   22   23 ar
  37   22   27 ar
  38   23   24 ar
  39   23   39 1
  40   24   25 ar
  41   24   40 1
  42   25   26 ar
  43   25   41 1
  44   26   27 ar
  45   26   42 1
  46   27   43 1

#	End of record

