#	Name: ASD01200018
#	Creating user name:	WinNT
#	Creation time:	15. 06. 2019 19:08

#	Modifying user name:	WinNT
#	Modification time:	15. 06. 2019 19:08

#	Program:	/corina/corina34_cracker 3.40 0067  02.08.2006

@<TRIPOS>MOLECULE
ASD01200018
  43   45    0    0    0
SMALL
NO_CHARGES


@<TRIPOS>ATOM
   1 C1             0.3917     1.2929    -1.6296 C.ar    
   2 C2             0.3647    -0.0875    -1.4593 C.ar    
   3 C3             1.4042    -0.7281    -0.8046 C.ar    
   4 C4             2.4808     0.0163    -0.3157 C.ar    
   5 C5             2.5000     1.4082    -0.4923 C.ar    
   6 C6             1.4532     2.0346    -1.1486 C.ar    
   7 C7             3.5887    -0.6559     0.3813 C.2     
   8 C8             3.5667    -1.9911     0.5493 C.2     
   9 C9             4.6734    -2.6626     1.2455 C.ar    
  10 O10            3.5424     2.1399    -0.0200 O.3     
  11 C11            3.4672     3.4932    -0.1161 C.ar    
  12 S12           -0.9945    -1.0232    -2.0771 S.3     
  13 C13           -2.0548     0.2435    -2.8266 C.3     
  14 C14            4.6418    -4.0515     1.4155 C.ar    
  15 C15            5.6756    -4.6710     2.0643 C.ar    
  16 C16            6.7369    -3.8846     2.5386 C.ar    
  17 C17            6.7043    -2.5018     2.3343 C.ar    
  18 N18            5.6968    -1.9426     1.7022 N.ar    
  19 C19            2.8833     4.2311     0.9039 C.ar    
  20 C20            2.8082     5.6067     0.8036 C.ar    
  21 C21            3.3137     6.2485    -0.3120 C.ar    
  22 C22            3.8956     5.5156    -1.3299 C.ar    
  23 C23            3.9793     4.1403    -1.2317 C.ar    
  24 C24            7.8715    -4.5086     3.2437 C.2     
  25 O25            7.8918    -5.7110     3.4173 O.2     
  26 O26            8.8861    -3.7453     3.6955 O.3     
  27 H27           -0.4193     1.7867    -2.1444 H       
  28 H28            1.3822    -1.7997    -0.6721 H       
  29 H29            1.4671     3.1059    -1.2850 H       
  30 H30            4.4195    -0.0779     0.7581 H       
  31 H31            2.7358    -2.5691     0.1725 H       
  32 H32           -2.3538     0.9641    -2.0654 H       
  33 H33           -1.5057     0.7561    -3.6164 H       
  34 H34           -2.9421    -0.2285    -3.2485 H       
  35 H35            3.8101    -4.6284     1.0389 H       
  36 H36            5.6744    -5.7414     2.2084 H       
  37 H37            7.5163    -1.8881     2.6956 H       
  38 H38            2.4877     3.7302     1.7751 H       
  39 H39            2.3539     6.1815     1.5971 H       
  40 H40            3.2536     7.3241    -0.3885 H       
  41 H41            4.2891     6.0193    -2.2005 H       
  42 H42            4.4343     3.5683    -2.0269 H       
  43 H43            9.6077    -4.1995     4.1517 H       
@<TRIPOS>BOND
   1    1    2 ar
   2    1    6 ar
   3    1   27 1
   4    2    3 ar
   5    2   12 1
   6    3    4 ar
   7    3   28 1
   8    4    5 ar
   9    4    7 1
  10    5    6 ar
  11    5   10 1
  12    6   29 1
  13    7    8 2
  14    7   30 1
  15    8    9 1
  16    8   31 1
  17    9   14 ar
  18    9   18 ar
  19   10   11 1
  20   11   19 ar
  21   11   23 ar
  22   12   13 1
  23   13   32 1
  24   13   33 1
  25   13   34 1
  26   14   15 ar
  27   14   35 1
  28   15   16 ar
  29   15   36 1
  30   16   17 ar
  31   16   24 1
  32   17   18 ar
  33   17   37 1
  34   19   20 ar
  35   19   38 1
  36   20   21 ar
  37   20   39 1
  38   21   22 ar
  39   21   40 1
  40   22   23 ar
  41   22   41 1
  42   23   42 1
  43   24   25 2
  44   24   26 1
  45   26   43 1

#	End of record

