#	Name: ASD02562096
#	Creating user name:	WinNT
#	Creation time:	15. 06. 2019 20:25

#	Modifying user name:	WinNT
#	Modification time:	15. 06. 2019 20:25

#	Program:	/corina/corina34_cracker 3.40 0067  02.08.2006

@<TRIPOS>MOLECULE
ASD02562096
  52   55    0    0    0
SMALL
NO_CHARGES


@<TRIPOS>ATOM
   1 C1             0.2985     1.5175    -0.5884 C.ar    
   2 N2             0.8647     0.6405    -1.4012 N.ar    
   3 C3             0.4489     0.5160    -2.6576 C.ar    
   4 C4            -0.6019     1.3284    -3.1145 C.ar    
   5 C5            -1.1743     2.2458    -2.2157 C.ar    
   6 N6            -0.6998     2.3011    -0.9763 N.ar    
   7 N7            -2.2124     3.0709    -2.6128 N.pl3   
   8 N8             0.7601     1.6173     0.7152 N.pl3   
   9 C9            -2.6907     4.0607    -1.7460 C.ar    
  10 C10            1.8181     0.8173     1.1429 C.ar    
  11 C11            3.0479     1.3957     1.4437 C.ar    
  12 C12           -1.8246     4.6828    -0.8564 C.ar    
  13 C13           -2.2972     5.6591    -0.0017 C.ar    
  14 C14           -3.6367     6.0184    -0.0315 C.ar    
  15 C15           -4.5025     5.3975    -0.9197 C.ar    
  16 C16           -4.0304     4.4251    -1.7791 C.ar    
  17 C17            1.6403    -0.5570     1.2734 C.ar    
  18 C18            2.6822    -1.3506     1.6959 C.ar    
  19 C19            3.9224    -0.7738     1.9940 C.ar    
  20 C20            4.0953     0.6095     1.8664 C.ar    
  21 C21            3.2328     2.8849     1.3059 C.3     
  22 C22            0.3047    -1.1768     0.9522 C.3     
  23 C23            5.0382    -1.6175     2.4456 C.2     
  24 C24            6.2334    -1.0593     2.7326 C.2     
  25 C25            7.3204    -1.8812     3.1724 C.1     
  26 N26            8.1827    -2.5332     3.5214 N.1     
  27 N27            0.8102    -0.2702    -3.7224 N.pl3   
  28 C28            0.0032     0.0648    -4.7702 C.2     
  29 N29           -0.8242     1.0025    -4.4113 N.2     
  30 O30           -4.1013     6.9795     0.8108 O.3     
  31 C31           -5.4914     7.2996     0.7261 C.3     
  32 H32           -2.6086     2.9631    -3.4917 H       
  33 H33            0.3467     2.2438     1.3295 H       
  34 H34           -0.7817     4.4030    -0.8328 H       
  35 H35           -1.6238     6.1428     0.6904 H       
  36 H36           -5.5453     5.6775    -0.9420 H       
  37 H37           -4.7047     3.9417    -2.4706 H       
  38 H38            2.5432    -2.4168     1.7976 H       
  39 H39            5.0505     1.0585     2.0953 H       
  40 H40            2.9790     3.3713     2.2477 H       
  41 H41            4.2712     3.1004     1.0540 H       
  42 H42            2.5820     3.2603     0.5162 H       
  43 H43            0.2902    -1.4875    -0.0925 H       
  44 H44            0.1437    -2.0447     1.5916 H       
  45 H45           -0.4857    -0.4464     1.1251 H       
  46 H46            4.9018    -2.6840     2.5477 H       
  47 H47            6.3698     0.0072     2.6304 H       
  48 H48            1.5110    -0.9407    -3.7292 H       
  49 H49            0.0453    -0.3820    -5.7525 H       
  50 H50           -5.7221     7.6541    -0.2785 H       
  51 H51           -6.0830     6.4099     0.9421 H       
  52 H52           -5.7296     8.0789     1.4500 H       
@<TRIPOS>BOND
   1    1    2 ar
   2    1    8 1
   3    1    6 ar
   4    2    3 ar
   5    3    4 ar
   6    3   27 1
   7    4    5 ar
   8    4   29 1
   9    5    6 ar
  10    5    7 1
  11    7    9 1
  12    7   32 1
  13    8   10 1
  14    8   33 1
  15    9   12 ar
  16    9   16 ar
  17   10   11 ar
  18   10   17 ar
  19   11   21 1
  20   11   20 ar
  21   12   13 ar
  22   12   34 1
  23   13   14 ar
  24   13   35 1
  25   14   15 ar
  26   14   30 1
  27   15   16 ar
  28   15   36 1
  29   16   37 1
  30   17   18 ar
  31   17   22 1
  32   18   19 ar
  33   18   38 1
  34   19   20 ar
  35   19   23 1
  36   20   39 1
  37   21   40 1
  38   21   41 1
  39   21   42 1
  40   22   43 1
  41   22   44 1
  42   22   45 1
  43   23   24 2
  44   23   46 1
  45   24   25 1
  46   24   47 1
  47   25   26 3
  48   27   28 1
  49   27   48 1
  50   28   29 2
  51   28   49 1
  52   30   31 1
  53   31   50 1
  54   31   51 1
  55   31   52 1

#	End of record

