#	Name: ASD01880640
#	Creating user name:	WinNT
#	Creation time:	15. 06. 2019 19:41

#	Modifying user name:	WinNT
#	Modification time:	15. 06. 2019 19:41

#	Program:	/corina/corina34_cracker 3.40 0067  02.08.2006

@<TRIPOS>MOLECULE
ASD01880640
  52   55    0    0    0
SMALL
NO_CHARGES


@<TRIPOS>ATOM
   1 N1            -0.0353     1.2587    -0.1575 N.ar    
   2 C2             0.0496    -0.0542    -0.2020 C.ar    
   3 N3             1.1989    -0.6833    -0.0542 N.ar    
   4 C4             2.3233    -0.0137     0.1462 C.ar    
   5 C5             2.2851     1.3687     0.2004 C.ar    
   6 C6             1.0508     2.0038     0.0403 C.ar    
   7 C7             3.5421     2.1684     0.4271 C.3     
   8 O8             4.2256     2.3440    -0.8155 O.3     
   9 C9             5.3856     3.0478    -0.7866 C.ar    
  10 C10            6.1018     3.2560    -1.9613 C.ar    
  11 C11            7.2748     3.9684    -1.9307 C.ar    
  12 C12            7.7563     4.4877    -0.7243 C.ar    
  13 C13            7.0328     4.2761     0.4526 C.ar    
  14 C14            5.8541     3.5648     0.4154 C.ar    
  15 C15            8.2697     4.3660    -2.9925 C.3     
  16 N16            9.3188     5.1284    -2.3061 N.am    
  17 C17            9.0186     5.1962    -0.9978 C.2     
  18 O18            9.6929     5.7622    -0.1592 O.2     
  19 C19            3.6287    -0.7478     0.3137 C.3     
  20 C20            0.9519     3.4823     0.0889 C.ar    
  21 C21           -0.0692     4.0888     0.8208 C.ar    
  22 C22           -0.1623     5.4619     0.8663 C.ar    
  23 C23            0.7667     6.2477     0.1795 C.ar    
  24 C24            1.7892     5.6391    -0.5528 C.ar    
  25 C25            1.8834     4.2659    -0.5925 C.ar    
  26 C26            0.6706     7.6757     0.2257 C.1     
  27 N27            0.5944     8.8086     0.2624 N.1     
  28 C28           11.4090     7.7591    -4.0600 C.3     
  29 C29           10.1760     7.1432    -3.3958 C.3     
  30 C30           10.4994     5.7182    -2.9421 C.3     
  31 H31           -0.8479    -0.6326    -0.3638 H       
  32 H32            3.2830     3.1433     0.8402 H       
  33 H33            4.1891     1.6381     1.1258 H       
  34 H34            5.7355     2.8573    -2.8958 H       
  35 H35            7.3960     4.6724     1.3893 H       
  36 H36            5.2954     3.4019     1.3251 H       
  37 H37            8.6960     3.4774    -3.4581 H       
  38 H38            7.7858     4.9884    -3.7452 H       
  39 H39            4.0983    -0.8811    -0.6609 H       
  40 H40            4.2900    -0.1703     0.9597 H       
  41 H41            3.4420    -1.7230     0.7635 H       
  42 H42           -0.7871     3.4812     1.3516 H       
  43 H43           -0.9533     5.9312     1.4324 H       
  44 H44            2.5076     6.2455    -1.0843 H       
  45 H45            2.6737     3.7952    -1.1585 H       
  46 H46           11.1786     8.7743    -4.3832 H       
  47 H47           12.2324     7.7832    -3.3462 H       
  48 H48           11.6944     7.1588    -4.9239 H       
  49 H49            9.8906     7.7435    -2.5319 H       
  50 H50            9.3526     7.1192    -4.1096 H       
  51 H51           11.3228     5.7422    -2.2283 H       
  52 H52           10.7848     5.1179    -3.8060 H       
@<TRIPOS>BOND
   1    1    2 ar
   2    1    6 ar
   3    2    3 ar
   4    2   31 1
   5    3    4 ar
   6    4    5 ar
   7    4   19 1
   8    5    6 ar
   9    5    7 1
  10    6   20 1
  11    7    8 1
  12    7   32 1
  13    7   33 1
  14    8    9 1
  15    9   10 ar
  16    9   14 ar
  17   10   11 ar
  18   10   34 1
  19   11   12 ar
  20   11   15 1
  21   12   13 ar
  22   12   17 1
  23   13   14 ar
  24   13   35 1
  25   14   36 1
  26   15   16 1
  27   15   37 1
  28   15   38 1
  29   16   17 am
  30   16   30 1
  31   17   18 2
  32   19   39 1
  33   19   40 1
  34   19   41 1
  35   20   21 ar
  36   20   25 ar
  37   21   22 ar
  38   21   42 1
  39   22   23 ar
  40   22   43 1
  41   23   24 ar
  42   23   26 1
  43   24   25 ar
  44   24   44 1
  45   25   45 1
  46   26   27 3
  47   28   29 1
  48   28   46 1
  49   28   47 1
  50   28   48 1
  51   29   30 1
  52   29   49 1
  53   29   50 1
  54   30   51 1
  55   30   52 1

#	End of record

