#	Name: ASD00841407
#	Creating user name:	WinNT
#	Creation time:	15. 06. 2019 18:41

#	Modifying user name:	WinNT
#	Modification time:	15. 06. 2019 18:41

#	Program:	/corina/corina34_cracker 3.40 0067  02.08.2006

@<TRIPOS>MOLECULE
ASD00841407
  92   97    0    0    0
SMALL
NO_CHARGES


@<TRIPOS>ATOM
   1 F1            -0.1126    -3.1351     4.7194 F       
   2 N2            -0.0159     1.3183     0.0093 N.ar    
   3 C3             0.0021    -0.0041     0.0020 C.ar    
   4 C4             1.2069    -0.6955    -0.0132 C.ar    
   5 C5             2.3925     0.0180    -0.0207 C.ar    
   6 C6             2.3308     1.4049    -0.0127 C.ar    
   7 C7             1.0980     2.0259     0.0025 C.ar    
   8 C8             1.2224    -2.2024    -0.0209 C.3     
   9 C9             0.4763    -2.7343    -1.2260 C.2     
  10 O10            2.5880    -2.6958    -0.0097 O.3     
  11 C11            3.3814    -2.3221    -1.0313 C.2     
  12 N12            4.6600    -2.7452    -1.0812 N.am    
  13 O13            2.9446    -1.6033    -1.9082 O.2     
  14 C14            5.5380    -2.3458    -2.1895 C.3     
  15 C15            6.1423    -3.6053    -2.8182 C.3     
  16 C16            6.8368    -4.4299    -1.7320 C.3     
  17 C17            5.8107    -4.8595    -0.6810 C.3     
  18 C18            5.2042    -3.6096    -0.0251 C.3     
  19 C19            7.4714    -5.6714    -2.3621 C.3     
  20 C20            8.4996    -5.2432    -3.4128 C.3     
  21 C21            9.1742    -6.4870    -3.9958 C.3     
  22 N22            9.8318    -7.2387    -2.9193 N.3     
  23 C23            8.8575    -7.7010    -1.9226 C.3     
  24 C24            8.1735    -6.4934    -1.2777 C.3     
  25 C25           10.6061    -8.3639    -3.4599 C.3     
  26 O26            0.7562    -2.5398    -2.3900 O.2     
  27 N27           -0.5539    -3.4626    -0.7639 N.am    
  28 C28            0.4503    -2.7460     1.1593 C.ar    
  29 C29           -0.5978    -3.4898     0.6316 C.ar    
  30 C30            0.6153    -2.6252     2.5208 C.ar    
  31 C31           -0.2711    -3.2506     3.3828 C.ar    
  32 C32           -1.3213    -3.9958     2.8683 C.ar    
  33 C33           -1.4865    -4.1167     1.5019 C.ar    
  34 F34           -2.1867    -4.6064     3.7070 F       
  35 C35           -1.0180    -5.8565    -2.0399 C.ar    
  36 C36            0.1594    -6.0216    -2.7544 C.ar    
  37 C37           -1.6947    -6.9617    -1.5608 C.ar    
  38 C38           -1.1991    -8.2313    -1.7927 C.ar    
  39 C39           -0.0255    -8.3985    -2.5047 C.ar    
  40 C40            0.6545    -7.2969    -2.9862 C.ar    
  41 H41            0.3597    -9.3914    -2.6845 H       
  42 O42            0.8267    -4.9361    -3.2271 O.3     
  43 C43            2.0321    -5.1815    -3.9542 C.3     
  44 C44           11.4702    -8.9679    -2.3511 C.3     
  45 C45           12.2766   -10.1398    -2.9142 C.3     
  46 S46           -1.6462    -4.2384    -1.7372 S.o2    
  47 O47           -2.8263    -4.4044    -0.9633 O.2     
  48 O48           -1.6244    -3.5595    -2.9854 O.2     
  49 O49           -1.1673    -0.6919     0.0099 O.3     
  50 C50           -3.5777    -0.8652     0.0330 C.3     
  51 C51           -2.3720     0.0766     0.0260 C.3     
  52 H52            3.3442    -0.4925    -0.0322 H       
  53 H53            3.2375     1.9916    -0.0178 H       
  54 H54            1.0444     3.1046     0.0084 H       
  55 H55            4.9585    -1.8056    -2.9382 H       
  56 H56            6.3362    -1.7071    -1.8114 H       
  57 H57            5.3510    -4.1991    -3.2757 H       
  58 H58            6.8692    -3.3195    -3.5786 H       
  59 H59            7.6115    -3.8271    -1.2581 H       
  60 H60            5.0225    -5.4415    -1.1586 H       
  61 H61            6.3015    -5.4663     0.0799 H       
  62 H62            5.9767    -3.0764     0.5291 H       
  63 H63            4.4032    -3.9049     0.6527 H       
  64 H64            6.6974    -6.2759    -2.8350 H       
  65 H65            7.9984    -4.6938    -4.2097 H       
  66 H66            9.2514    -4.6057    -2.9476 H       
  67 H67            8.4237    -7.1173    -4.4729 H       
  68 H68            9.9171    -6.1849    -4.7341 H       
  69 H69            8.1085    -8.3256    -2.4094 H       
  70 H70            9.3704    -8.2806    -1.1551 H       
  71 H71            8.9202    -5.8756    -0.7789 H       
  72 H72            7.4392    -6.8373    -0.5492 H       
  73 H73            9.9245    -9.1230    -3.8436 H       
  74 H74           11.2468    -8.0094    -4.2674 H       
  75 H75            1.4351    -2.0439     2.9166 H       
  76 H76           -2.3067    -4.6983     1.1077 H       
  77 H77           -2.6115    -6.8337    -1.0045 H       
  78 H78           -1.7292    -9.0939    -1.4168 H       
  79 H79            1.5707    -7.4281    -3.5428 H       
  80 H80            2.4632    -4.2328    -4.2738 H       
  81 H81            2.7419    -5.7060    -3.3145 H       
  82 H82            1.8107    -5.7930    -4.8289 H       
  83 H83           12.1519    -8.2088    -1.9675 H       
  84 H84           10.8295    -9.3224    -1.5436 H       
  85 H85           12.8922   -10.5701    -2.1242 H       
  86 H86           11.5950   -10.8989    -3.2978 H       
  87 H87           12.9173    -9.7854    -3.7217 H       
  88 H88           -4.4966    -0.2790     0.0452 H       
  89 H89           -3.5566    -1.4891    -0.8606 H       
  90 H90           -3.5390    -1.4986     0.9192 H       
  91 H91           -2.3931     0.7004     0.9196 H       
  92 H92           -2.4108     0.7099    -0.8602 H       
@<TRIPOS>BOND
   1    1   31 1
   2    2    3 ar
   3    2    7 ar
   4    3    4 ar
   5    3   49 1
   6    4    5 ar
   7    4    8 1
   8    5    6 ar
   9    5   52 1
  10    6    7 ar
  11    6   53 1
  12    7   54 1
  13    8    9 1
  14    8   10 1
  15    8   28 1
  16    9   26 2
  17    9   27 am
  18   10   11 1
  19   11   12 am
  20   11   13 2
  21   12   14 1
  22   12   18 1
  23   14   15 1
  24   14   55 1
  25   14   56 1
  26   15   16 1
  27   15   57 1
  28   15   58 1
  29   16   17 1
  30   16   19 1
  31   16   59 1
  32   17   18 1
  33   17   60 1
  34   17   61 1
  35   18   62 1
  36   18   63 1
  37   19   20 1
  38   19   24 1
  39   19   64 1
  40   20   21 1
  41   20   65 1
  42   20   66 1
  43   21   22 1
  44   21   67 1
  45   21   68 1
  46   22   23 1
  47   22   25 1
  48   23   24 1
  49   23   69 1
  50   23   70 1
  51   24   71 1
  52   24   72 1
  53   25   44 1
  54   25   73 1
  55   25   74 1
  56   27   46 am
  57   27   29 1
  58   28   29 ar
  59   28   30 ar
  60   29   33 ar
  61   30   31 ar
  62   30   75 1
  63   31   32 ar
  64   32   33 ar
  65   32   34 1
  66   33   76 1
  67   35   36 ar
  68   35   37 ar
  69   35   46 1
  70   36   42 1
  71   36   40 ar
  72   37   38 ar
  73   37   77 1
  74   38   39 ar
  75   38   78 1
  76   39   40 ar
  77   39   41 1
  78   40   79 1
  79   42   43 1
  80   43   80 1
  81   43   81 1
  82   43   82 1
  83   44   45 1
  84   44   83 1
  85   44   84 1
  86   45   85 1
  87   45   86 1
  88   45   87 1
  89   46   47 2
  90   46   48 2
  91   49   51 1
  92   50   51 1
  93   50   88 1
  94   50   89 1
  95   50   90 1
  96   51   91 1
  97   51   92 1

#	End of record

