#	Name: ASD01022008
#	Creating user name:	WinNT
#	Creation time:	15. 06. 2019 18:56

#	Modifying user name:	WinNT
#	Modification time:	15. 06. 2019 18:56

#	Program:	/corina/corina34_cracker 3.40 0067  02.08.2006

@<TRIPOS>MOLECULE
ASD01022008
  42   44    0    0    0
SMALL
NO_CHARGES


@<TRIPOS>ATOM
   1 C1            -0.0167     1.3831     0.0096 C.ar    
   2 C2             0.0021    -0.0041     0.0020 C.ar    
   3 C3             1.2141    -0.6789    -0.0132 C.ar    
   4 C4             2.3989     0.0314    -0.0207 C.ar    
   5 C5             2.3774     1.4139    -0.0126 C.ar    
   6 C6             1.1708     2.0889     0.0021 C.ar    
   7 O7            -1.1648    -0.7006     0.0099 O.3     
   8 C8             3.6714     2.1863    -0.0198 C.3     
   9 C9             4.0963     2.4560    -1.4647 C.3     
  10 O10            5.3233     3.1884    -1.4715 O.3     
  11 C11            5.8425     3.5118    -2.6860 C.ar    
  12 C12            5.1787     3.1284    -3.8482 C.ar    
  13 C13            5.6905     3.4476    -5.0863 C.ar    
  14 C14            6.8809     4.1598    -5.1838 C.ar    
  15 C15            7.5538     4.5490    -4.0116 C.ar    
  16 C16            7.0231     4.2240    -2.7616 C.ar    
  17 N17            7.6265     4.6163    -6.2504 N.pl3   
  18 C18            8.7360     5.2738    -5.7940 C.2     
  19 C19            8.7515     5.2687    -4.4517 C.2     
  20 C20           10.8308     4.8228    -3.1762 C.3     
  21 C21            9.8021     5.8864    -3.5652 C.3     
  22 N22           11.8549     5.4250    -2.3122 N.3     
  23 Cl23          13.0272     4.2677    -1.8532 Cl      
  24 H24           -0.9590     1.9108     0.0170 H       
  25 H25            1.2314    -1.7588    -0.0188 H       
  26 H26            3.3426    -0.4935    -0.0325 H       
  27 H27            1.1567     3.1688     0.0084 H       
  28 H28           -1.5113    -0.8975    -0.8712 H       
  29 H29            3.5318     3.1338     0.5007 H       
  30 H30            4.4441     1.6055     0.4838 H       
  31 H31            4.2359     1.5085    -1.9852 H       
  32 H32            3.3236     3.0369    -1.9683 H       
  33 H33            4.2538     2.5752    -3.7781 H       
  34 H34            5.1676     3.1446    -5.9813 H       
  35 H35            7.5370     4.5212    -1.8594 H       
  36 H36            7.3984     4.4900    -7.1846 H       
  37 H37            9.4882     5.7295    -6.4209 H       
  38 H38           10.3330     4.0145    -2.6406 H       
  39 H39           11.3017     4.4266    -4.0759 H       
  40 H40           10.2999     6.6947    -4.1009 H       
  41 H41            9.3312     6.2827    -2.6656 H       
  42 H42           12.2867     6.2183    -2.7620 H       
@<TRIPOS>BOND
   1    1    2 ar
   2    1    6 ar
   3    1   24 1
   4    2    3 ar
   5    2    7 1
   6    3    4 ar
   7    3   25 1
   8    4    5 ar
   9    4   26 1
  10    5    6 ar
  11    5    8 1
  12    6   27 1
  13    7   28 1
  14    8    9 1
  15    8   29 1
  16    8   30 1
  17    9   10 1
  18    9   31 1
  19    9   32 1
  20   10   11 1
  21   11   12 ar
  22   11   16 ar
  23   12   13 ar
  24   12   33 1
  25   13   14 ar
  26   13   34 1
  27   14   15 ar
  28   14   17 1
  29   15   16 ar
  30   15   19 1
  31   16   35 1
  32   17   18 1
  33   17   36 1
  34   18   19 2
  35   18   37 1
  36   19   21 1
  37   20   21 1
  38   20   22 1
  39   20   38 1
  40   20   39 1
  41   21   40 1
  42   21   41 1
  43   22   23 1
  44   22   42 1

#	End of record

