#	Name: ASD03930219
#	Creating user name:	WinNT
#	Creation time:	15. 06. 2019 20:47

#	Modifying user name:	WinNT
#	Modification time:	15. 06. 2019 20:47

#	Program:	/corina/corina34_cracker 3.40 0067  02.08.2006

@<TRIPOS>MOLECULE
ASD03930219
  44   46    0    0    0
SMALL
NO_CHARGES


@<TRIPOS>ATOM
   1 C1            -1.8830    -1.4715     2.6945 C.2     
   2 C2            -0.9526    -1.5635     1.5497 C.ar    
   3 C3             0.1879    -2.3628     1.6368 C.ar    
   4 C4             1.0549    -2.4439     0.5601 C.ar    
   5 C5             0.7889    -1.7309    -0.6018 C.ar    
   6 C6            -0.3407    -0.9387    -0.6893 C.ar    
   7 C7            -1.2147    -0.8555     0.3755 C.ar    
   8 O8            -1.6553    -2.0928     3.7141 O.2     
   9 N9            -2.9809    -0.6945     2.6099 N.am    
  10 C10           -3.9028    -0.6868     3.6390 C.2     
  11 C11           -4.0498    -1.8947     4.5280 C.3     
  12 N12           -4.6384     0.3551     3.8388 N.2     
  13 O13           -4.5766     1.4483     2.9409 O.3     
  14 O14            2.1668    -3.2210     0.6405 O.3     
  15 S15           -1.0005    -7.2635     0.5111 S.o2    
  16 N16           -1.2805    -8.0281     1.9653 N.am    
  17 C17           -0.5611    -9.2596     2.2758 C.3     
  18 C18            0.9435    -9.0603     2.3777 C.3     
  19 O19            1.5001    -8.6578     1.1204 O.3     
  20 C20            1.6622    -7.3214     0.9482 C.ar    
  21 C21            0.5833    -6.4829     0.7040 C.ar    
  22 C22            2.9326    -6.7625     1.0358 C.ar    
  23 C23            3.0942    -5.3960     0.9233 C.ar    
  24 C24            1.9996    -4.5678     0.7232 C.ar    
  25 C25            0.7290    -5.1241     0.6081 C.ar    
  26 O26           -0.8383    -8.2843    -0.4641 O.2     
  27 O27           -1.9608    -6.2215     0.4043 O.2     
  28 H28            0.3939    -2.9161     2.5411 H       
  29 H29            1.4671    -1.7954    -1.4398 H       
  30 H30           -0.5421    -0.3867    -1.5954 H       
  31 H31           -2.0987    -0.2395     0.3019 H       
  32 H32           -3.1239    -0.1406     1.8265 H       
  33 H33           -3.3729    -1.8049     5.3777 H       
  34 H34           -5.0769    -1.9588     4.8870 H       
  35 H35           -3.8057    -2.7939     3.9625 H       
  36 H36           -5.1628     2.1814     3.1729 H       
  37 H37           -1.9149    -7.6582     2.5991 H       
  38 H38           -0.9282    -9.6505     3.2247 H       
  39 H39           -0.7658    -9.9918     1.4948 H       
  40 H40            1.1525    -8.2926     3.1228 H       
  41 H41            1.4073    -9.9958     2.6904 H       
  42 H42            3.7924    -7.3972     1.1918 H       
  43 H43            4.0830    -4.9673     0.9925 H       
  44 H44           -0.1317    -4.4922     0.4455 H       
@<TRIPOS>BOND
   1    1    2 1
   2    1    8 2
   3    1    9 am
   4    2    3 ar
   5    2    7 ar
   6    3    4 ar
   7    3   28 1
   8    4    5 ar
   9    4   14 1
  10    5    6 ar
  11    5   29 1
  12    6    7 ar
  13    6   30 1
  14    7   31 1
  15    9   10 1
  16    9   32 1
  17   10   11 1
  18   10   12 2
  19   11   33 1
  20   11   34 1
  21   11   35 1
  22   12   13 1
  23   13   36 1
  24   14   24 1
  25   15   16 am
  26   15   21 1
  27   15   26 2
  28   15   27 2
  29   16   17 1
  30   16   37 1
  31   17   18 1
  32   17   38 1
  33   17   39 1
  34   18   19 1
  35   18   40 1
  36   18   41 1
  37   19   20 1
  38   20   21 ar
  39   20   22 ar
  40   21   25 ar
  41   22   23 ar
  42   22   42 1
  43   23   24 ar
  44   23   43 1
  45   24   25 ar
  46   25   44 1

#	End of record

