#	Name: ASD00844990
#	Creating user name:	WinNT
#	Creation time:	15. 06. 2019 18:51

#	Modifying user name:	WinNT
#	Modification time:	15. 06. 2019 18:51

#	Program:	/corina/corina34_cracker 3.40 0067  02.08.2006

@<TRIPOS>MOLECULE
ASD00844990
  93   98    0    0    0
SMALL
NO_CHARGES


@<TRIPOS>ATOM
   1 F1             5.6891    -2.1914    -1.9631 F       
   2 C2             0.7414     1.2449    -0.3752 C.ar    
   3 C3             0.9825    -0.0935    -0.6483 C.ar    
   4 C4             0.8552    -1.0387     0.3595 C.ar    
   5 C5             0.4888    -0.6449     1.6317 C.ar    
   6 C6             0.2485     0.6900     1.9014 C.ar    
   7 C7             0.3751     1.6337     0.8991 C.ar    
   8 C8             1.1159    -2.4937     0.0662 C.3     
   9 C9             0.7849    -3.3456     1.2730 C.2     
  10 C10            0.3049    -2.9477    -1.1492 C.3     
  11 C11           -1.1545    -2.6512    -0.9185 C.2     
  12 N12           -2.0751    -3.0608    -1.8136 N.am    
  13 O13           -1.5006    -2.0439     0.0727 O.2     
  14 C14           -3.4865    -2.6815    -1.6627 C.3     
  15 C15           -4.3441    -3.9506    -1.6938 C.3     
  16 C16           -4.0377    -4.7373    -2.9702 C.3     
  17 C17           -2.5639    -5.1500    -2.9757 C.3     
  18 C18           -1.6853    -3.8899    -2.9622 C.3     
  19 C19           -4.9174    -5.9881    -3.0216 C.3     
  20 C20           -6.3923    -5.5767    -3.0178 C.3     
  21 C21           -7.2661    -6.8280    -3.1308 C.3     
  22 N22           -6.9418    -7.5426    -4.3720 N.3     
  23 C23           -5.5428    -7.9889    -4.3778 C.3     
  24 C24           -4.6176    -6.7723    -4.3021 C.3     
  25 C25           -7.8559    -8.6731    -4.5827 C.3     
  26 O26           -0.3013    -3.4546     1.8017 O.2     
  27 N27            1.9201    -3.9586     1.6481 N.am    
  28 C28            2.5913    -2.7323    -0.1591 C.ar    
  29 C29            2.9990    -3.6203     0.8285 C.ar    
  30 C30            3.4847    -2.2537    -1.0911 C.ar    
  31 C31            4.8093    -2.6582    -1.0503 C.ar    
  32 C32            5.2284    -3.5442    -0.0694 C.ar    
  33 C33            4.3316    -4.0242     0.8656 C.ar    
  34 F34            6.5195    -3.9399    -0.0278 F       
  35 C35            1.6981    -6.6165     2.3271 C.ar    
  36 C36            0.4432    -6.9256     1.8224 C.ar    
  37 C37            2.6914    -7.5771     2.3484 C.ar    
  38 C38            2.4379    -8.8470     1.8670 C.ar    
  39 C39            1.1842    -9.1612     1.3612 C.ar    
  40 C40            0.1861    -8.1996     1.3391 C.ar    
  41 O41            0.9353   -10.4107     0.8883 O.3     
  42 O42           -0.5334    -5.9808     1.8021 O.3     
  43 C43           -1.8008    -6.3691     1.2684 C.3     
  44 C44            2.0101   -11.3509     0.9424 C.3     
  45 O45            1.3424    -0.4784    -1.9009 O.3     
  46 C46            1.3752     0.5358    -2.9070 C.3     
  47 C47            1.8839    -0.0639    -4.2194 C.3     
  48 F48            3.1347    -0.6541    -4.0085 F       
  49 F49            0.9811    -1.0329    -4.6703 F       
  50 S50            2.0277    -4.9957     2.9346 S.o2    
  51 O51            3.3889    -4.9892     3.3425 O.2     
  52 O52            0.9538    -4.6675     3.8055 O.2     
  53 H53            0.8441     1.9831    -1.1568 H       
  54 H54            0.3896    -1.3802     2.4165 H       
  55 H55           -0.0385     0.9957     2.8966 H       
  56 H56            0.1869     2.6756     1.1122 H       
  57 H57            0.6485    -2.4139    -2.0352 H       
  58 H58            0.4392    -4.0194    -1.2958 H       
  59 H59           -3.6273    -2.1686    -0.7113 H       
  60 H60           -3.7777    -2.0236    -2.4815 H       
  61 H61           -4.1153    -4.5657    -0.8235 H       
  62 H62           -5.3991    -3.6771    -1.6794 H       
  63 H63           -4.2432    -4.1130    -3.8397 H       
  64 H64           -2.3519    -5.7538    -2.0933 H       
  65 H65           -2.3520    -5.7303    -3.8737 H       
  66 H66           -1.8309    -3.3330    -3.8878 H       
  67 H67           -0.6378    -4.1758    -2.8662 H       
  68 H68           -4.7116    -6.6141    -2.1533 H       
  69 H69           -6.6222    -5.0549    -2.0889 H       
  70 H70           -6.5886    -4.9182    -3.8640 H       
  71 H71           -7.0794    -7.4796    -2.2771 H       
  72 H72           -8.3166    -6.5375    -3.1428 H       
  73 H73           -5.3642    -8.6351    -3.5183 H       
  74 H74           -5.3417    -8.5416    -5.2955 H       
  75 H75           -4.7860    -6.1326    -5.1684 H       
  76 H76           -3.5796    -7.1046    -4.2906 H       
  77 H77           -8.8798    -8.3051    -4.6486 H       
  78 H78           -7.5935    -9.1848    -5.5087 H       
  79 H79           -7.7727    -9.3683    -3.7473 H       
  80 H80            3.1533    -1.5641    -1.8533 H       
  81 H81            4.6645    -4.7138     1.6272 H       
  82 H82            3.6676    -7.3345     2.7416 H       
  83 H83            3.2161    -9.5957     1.8841 H       
  84 H84           -0.7902    -8.4423     0.9462 H       
  85 H85           -1.6775    -6.6851     0.2326 H       
  86 H86           -2.2043    -7.1947     1.8546 H       
  87 H87           -2.4874    -5.5236     1.3111 H       
  88 H88            1.6783   -12.3058     0.5350 H       
  89 H89            2.8494   -10.9774     0.3557 H       
  90 H90            2.3224   -11.4864     1.9779 H       
  91 H91            0.3712     0.9339    -3.0545 H       
  92 H92            2.0417     1.3387    -2.5920 H       
  93 H93            1.9753     0.7236    -4.9675 H       
@<TRIPOS>BOND
   1    1   31 1
   2    2    3 ar
   3    2    7 ar
   4    2   53 1
   5    3    4 ar
   6    3   45 1
   7    4    5 ar
   8    4    8 1
   9    5    6 ar
  10    5   54 1
  11    6    7 ar
  12    6   55 1
  13    7   56 1
  14    8    9 1
  15    8   10 1
  16    8   28 1
  17    9   26 2
  18    9   27 am
  19   10   11 1
  20   10   57 1
  21   10   58 1
  22   11   12 am
  23   11   13 2
  24   12   14 1
  25   12   18 1
  26   14   15 1
  27   14   59 1
  28   14   60 1
  29   15   16 1
  30   15   61 1
  31   15   62 1
  32   16   17 1
  33   16   19 1
  34   16   63 1
  35   17   18 1
  36   17   64 1
  37   17   65 1
  38   18   66 1
  39   18   67 1
  40   19   20 1
  41   19   24 1
  42   19   68 1
  43   20   21 1
  44   20   69 1
  45   20   70 1
  46   21   22 1
  47   21   71 1
  48   21   72 1
  49   22   23 1
  50   22   25 1
  51   23   24 1
  52   23   73 1
  53   23   74 1
  54   24   75 1
  55   24   76 1
  56   25   77 1
  57   25   78 1
  58   25   79 1
  59   27   50 am
  60   27   29 1
  61   28   29 ar
  62   28   30 ar
  63   29   33 ar
  64   30   31 ar
  65   30   80 1
  66   31   32 ar
  67   32   33 ar
  68   32   34 1
  69   33   81 1
  70   35   36 ar
  71   35   37 ar
  72   35   50 1
  73   36   42 1
  74   36   40 ar
  75   37   38 ar
  76   37   82 1
  77   38   39 ar
  78   38   83 1
  79   39   40 ar
  80   39   41 1
  81   40   84 1
  82   41   44 1
  83   42   43 1
  84   43   85 1
  85   43   86 1
  86   43   87 1
  87   44   88 1
  88   44   89 1
  89   44   90 1
  90   45   46 1
  91   46   47 1
  92   46   91 1
  93   46   92 1
  94   47   48 1
  95   47   49 1
  96   47   93 1
  97   50   51 2
  98   50   52 2

#	End of record

