#	Name: ASD05430525
#	Creating user name:	WinNT
#	Creation time:	15. 06. 2019 21:00

#	Modifying user name:	WinNT
#	Modification time:	15. 06. 2019 21:00

#	Program:	/corina/corina34_cracker 3.40 0067  02.08.2006

@<TRIPOS>MOLECULE
ASD05430525
  57   61    0    0    0
SMALL
NO_CHARGES


@<TRIPOS>ATOM
   1 C1            -0.1553     1.0536     0.2007 C.ar    
   2 C2            -0.1727    -0.1441     0.9149 C.ar    
   3 C3            -1.3673    -0.6335     1.4279 C.ar    
   4 C4            -2.5406     0.0617     1.2333 C.ar    
   5 C5            -2.5308     1.2638     0.5179 C.ar    
   6 C6            -1.3273     1.7596     0.0067 C.ar    
   7 C7            -4.9495     1.3446     0.1948 C.2     
   8 C8            -3.7832     2.0080     0.3089 C.2     
   9 O9             1.0157     1.5296    -0.3000 O.3     
  10 C10            1.4869    -1.3391     2.3090 C.2     
  11 N11            1.0173    -0.8557     1.1150 N.pl3   
  12 C12            2.6553    -1.9555     2.0477 C.2     
  13 N13            2.8973    -1.8544     0.7323 N.2     
  14 C14            1.9236    -1.1978     0.1627 C.2     
  15 C15            3.5386    -2.6402     3.0587 C.3     
  16 C16            0.9597     2.7620    -1.0211 C.3     
  17 C17           -6.2525     2.0421     0.1482 C.2     
  18 C18           -5.0144    -0.1698     0.0990 C.3     
  19 N19           -7.2260     1.4861    -0.6753 N.am    
  20 C20           -7.0538     0.2648    -1.1983 C.2     
  21 N21           -6.0121    -0.5201    -0.9158 N.am    
  22 O22           -7.8902    -0.1501    -1.9769 O.2     
  23 C23           -9.5173     1.3738    -1.4777 C.ar    
  24 C24           -9.9675     0.3339    -0.6858 C.ar    
  25 C25          -10.0756     1.5865    -2.7244 C.ar    
  26 C26          -11.0848     0.7598    -3.1803 C.ar    
  27 C27          -11.5364    -0.2821    -2.3882 C.ar    
  28 C28          -10.9763    -0.4944    -1.1399 C.ar    
  29 F29          -12.5232    -1.0907    -2.8327 F       
  30 C30           -8.4215     2.2802    -0.9788 C.3     
  31 C31           -8.8796     2.9835     0.2995 C.3     
  32 C32           -7.7441     3.8054     0.8946 C.3     
  33 N33           -6.4675     3.1143     0.8312 N.2     
  34 H34           -1.3764    -1.5615     1.9804 H       
  35 H35           -3.4680    -0.3215     1.6327 H       
  36 H36           -1.3153     2.6872    -0.5461 H       
  37 H37           -3.7668     3.0861     0.2469 H       
  38 H38            1.0130    -1.2404     3.2744 H       
  39 H39            1.8505    -0.9658    -0.8896 H       
  40 H40            3.2502    -3.6880     3.1426 H       
  41 H41            4.5779    -2.5742     2.7369 H       
  42 H42            3.4266    -2.1538     4.0276 H       
  43 H43            1.9593     3.0275    -1.3650 H       
  44 H44            0.2977     2.6507    -1.8799 H       
  45 H45            0.5792     3.5478    -0.3685 H       
  46 H46           -4.0400    -0.5622    -0.1919 H       
  47 H47           -5.3072    -0.5872     1.0624 H       
  48 H48           -5.9124    -1.3541    -1.4009 H       
  49 H49           -9.5304     0.1685     0.2878 H       
  50 H50           -9.7231     2.3993    -3.3421 H       
  51 H51          -11.5212     0.9266    -4.1540 H       
  52 H52          -11.3275    -1.3071    -0.5213 H       
  53 H53           -8.1835     3.0233    -1.7399 H       
  54 H54           -9.7165     3.6420     0.0673 H       
  55 H55           -9.2013     2.2366     1.0252 H       
  56 H56           -7.6643     4.7450     0.3479 H       
  57 H57           -7.9756     4.0243     1.9370 H       
@<TRIPOS>BOND
   1    1    2 ar
   2    1    9 1
   3    1    6 ar
   4    2    3 ar
   5    2   11 1
   6    3    4 ar
   7    3   34 1
   8    4    5 ar
   9    4   35 1
  10    5    6 ar
  11    5    8 1
  12    6   36 1
  13    7    8 2
  14    7   17 1
  15    7   18 1
  16    8   37 1
  17    9   16 1
  18   10   11 1
  19   10   12 2
  20   10   38 1
  21   11   14 1
  22   12   13 1
  23   12   15 1
  24   13   14 2
  25   14   39 1
  26   15   40 1
  27   15   41 1
  28   15   42 1
  29   16   43 1
  30   16   44 1
  31   16   45 1
  32   17   19 1
  33   17   33 2
  34   18   21 1
  35   18   46 1
  36   18   47 1
  37   19   20 am
  38   19   30 1
  39   20   22 2
  40   20   21 am
  41   21   48 1
  42   23   24 ar
  43   23   25 ar
  44   23   30 1
  45   24   28 ar
  46   24   49 1
  47   25   26 ar
  48   25   50 1
  49   26   27 ar
  50   26   51 1
  51   27   28 ar
  52   27   29 1
  53   28   52 1
  54   30   31 1
  55   30   53 1
  56   31   32 1
  57   31   54 1
  58   31   55 1
  59   32   33 1
  60   32   56 1
  61   32   57 1

#	End of record

