#	Name: ASD01814393
#	Creating user name:	WinNT
#	Creation time:	15. 06. 2019 19:32

#	Modifying user name:	WinNT
#	Modification time:	15. 06. 2019 19:32

#	Program:	/corina/corina34_cracker 3.40 0067  02.08.2006

@<TRIPOS>MOLECULE
ASD01814393
  53   58    0    0    0
SMALL
NO_CHARGES


@<TRIPOS>ATOM
   1 C1            -0.0167     1.3814     0.0096 C.ar    
   2 C2             0.0021    -0.0041     0.0020 C.ar    
   3 C3             1.1967    -0.6943    -0.0131 C.ar    
   4 C4             2.3998     0.0008    -0.0208 C.ar    
   5 C5             2.3784     1.4090    -0.0130 C.ar    
   6 C6             1.1686     2.0941     0.0021 C.ar    
   7 N7             3.6099    -0.6624    -0.0354 N.pl3   
   8 N8             4.7462    -0.0676    -0.0426 N.2     
   9 C9             4.8855     1.2326    -0.0369 C.2     
  10 C10            3.6808     2.0987    -0.0218 C.2     
  11 C11            6.0164     2.1634    -0.0419 C.2     
  12 N12            5.4832     3.4040    -0.0301 N.am    
  13 N13            4.0878     3.3334    -0.0184 N.2     
  14 C14            3.5959    -2.1273    -0.0426 C.3     
  15 C15            3.5778    -2.6225    -1.4658 C.ar    
  16 C16            4.7677    -2.8607    -2.1287 C.ar    
  17 C17            4.7544    -3.3141    -3.4332 C.ar    
  18 C18            3.5446    -3.5312    -4.0789 C.ar    
  19 C19            2.3515    -3.2916    -3.4105 C.ar    
  20 C20            2.3712    -2.8432    -2.1043 C.ar    
  21 N21            3.5277    -3.9910    -5.4031 N.pl3   
  22 C22            2.4250    -4.2419    -6.1445 C.2     
  23 C23            2.8354    -4.6671    -7.3618 C.2     
  24 C24            4.2346    -4.6767    -7.3657 C.2     
  25 N25            4.6503    -4.2660    -6.1946 N.2     
  26 O26            7.2016     1.8758    -0.0537 O.2     
  27 C27            6.2232     4.5919    -0.0293 C.ar    
  28 C28            7.1680     4.8239    -1.0205 C.ar    
  29 C29            7.8964     5.9975    -1.0171 C.ar    
  30 C30            7.6860     6.9407    -0.0282 C.ar    
  31 C31            6.7458     6.7128     0.9604 C.ar    
  32 C32            6.0103     5.5441     0.9595 C.ar    
  33 C33            4.9861     5.2967     2.0370 C.3     
  34 F34            1.1510     3.4449     0.0091 F       
  35 H35           -0.9603     1.9067     0.0169 H       
  36 H36           -0.9296    -0.5503     0.0083 H       
  37 H37            1.1966    -1.7743    -0.0185 H       
  38 H38            4.4871    -2.5017     0.4611 H       
  39 H39            2.7073    -2.4847     0.4778 H       
  40 H40            5.7085    -2.6916    -1.6259 H       
  41 H41            5.6841    -3.4993    -3.9507 H       
  42 H42            1.4088    -3.4592    -3.9103 H       
  43 H43            1.4435    -2.6566    -1.5839 H       
  44 H44            1.4008    -4.1247    -5.8226 H       
  45 H45            2.1958    -4.9493    -8.1851 H       
  46 H46            4.8632    -4.9684    -8.1940 H       
  47 H47            7.3333     4.0873    -1.7928 H       
  48 H48            8.6312     6.1785    -1.7876 H       
  49 H49            8.2573     7.8572    -0.0274 H       
  50 H50            6.5841     7.4513     1.7316 H       
  51 H51            4.0208     5.6896     1.7178 H       
  52 H52            4.9005     4.2251     2.2177 H       
  53 H53            5.2963     5.7962     2.9548 H       
@<TRIPOS>BOND
   1    1    2 ar
   2    1    6 ar
   3    1   35 1
   4    2    3 ar
   5    2   36 1
   6    3    4 ar
   7    3   37 1
   8    4    5 ar
   9    4    7 1
  10    5    6 ar
  11    5   10 1
  12    6   34 1
  13    7    8 1
  14    7   14 1
  15    8    9 2
  16    9   10 1
  17    9   11 1
  18   10   13 2
  19   11   12 am
  20   11   26 2
  21   12   13 1
  22   12   27 1
  23   14   15 1
  24   14   38 1
  25   14   39 1
  26   15   16 ar
  27   15   20 ar
  28   16   17 ar
  29   16   40 1
  30   17   18 ar
  31   17   41 1
  32   18   19 ar
  33   18   21 1
  34   19   20 ar
  35   19   42 1
  36   20   43 1
  37   21   22 1
  38   21   25 1
  39   22   23 2
  40   22   44 1
  41   23   24 1
  42   23   45 1
  43   24   25 2
  44   24   46 1
  45   27   28 ar
  46   27   32 ar
  47   28   29 ar
  48   28   47 1
  49   29   30 ar
  50   29   48 1
  51   30   31 ar
  52   30   49 1
  53   31   32 ar
  54   31   50 1
  55   32   33 1
  56   33   51 1
  57   33   52 1
  58   33   53 1

#	End of record

