#	Name: ASD06710035
#	Creating user name:	WinNT
#	Creation time:	15. 06. 2019 21:08

#	Modifying user name:	WinNT
#	Modification time:	15. 06. 2019 21:08

#	Program:	/corina/corina34_cracker 3.40 0067  02.08.2006

@<TRIPOS>MOLECULE
ASD06710035
  36   38    0    0    0
SMALL
NO_CHARGES


@<TRIPOS>ATOM
   1 C1             2.0224     0.3513    -1.1455 C.ar    
   2 C2             1.1674    -0.5884    -0.6111 C.ar    
   3 C3             0.4419    -0.3037     0.5350 C.ar    
   4 C4             0.5730     0.9320     1.1527 C.ar    
   5 C5             2.1607     1.6001    -0.5288 C.ar    
   6 C6             2.9796     2.7730    -0.8665 C.2     
   7 C7             1.4236     1.8754     0.6276 C.ar    
   8 C8             1.7866     3.2797     1.0452 C.3     
   9 C9             2.7878     3.7602     0.0206 C.2     
  10 C10            3.4384     5.0780     0.0005 C.2     
  11 N11            2.6649     6.2375    -0.0945 N.pl3   
  12 C12            4.7726     5.1673     0.0733 C.2     
  13 C13            1.2180     6.1378    -0.3015 C.3     
  14 F14           -0.3945    -1.2305     1.0514 F       
  15 C15            3.3006     7.5530     0.0130 C.3     
  16 C16            3.7186     8.0222    -1.3567 C.2     
  17 C17            3.5613     9.0605    -3.3936 C.2     
  18 C18            2.9639     8.7457    -2.1852 C.2     
  19 S19            5.2790     7.7063    -2.1044 S.3     
  20 C20            4.8019     8.5946    -3.5455 C.2     
  21 H21            2.5884     0.1226    -2.0364 H       
  22 H22            1.0619    -1.5515    -1.0882 H       
  23 H23            0.0068     1.1524     2.0455 H       
  24 H24            3.6460     2.8318    -1.7144 H       
  25 H25            0.9023     3.9168     1.0345 H       
  26 H26            2.2357     3.2735     2.0383 H       
  27 H27            5.2506     6.1356     0.0585 H       
  28 H28            5.3706     4.2710     0.1467 H       
  29 H29            0.7214     6.0078     0.6600 H       
  30 H30            0.8555     7.0490    -0.7774 H       
  31 H31            1.0006     5.2825    -0.9413 H       
  32 H32            2.5939     8.2641     0.4407 H       
  33 H33            4.1779     7.4811     0.6558 H       
  34 H34            3.0614     9.6406    -4.1551 H       
  35 H35            1.9625     9.0615    -1.9325 H       
  36 H36            5.4196     8.7416    -4.4192 H       
@<TRIPOS>BOND
   1    1    2 ar
   2    1    5 ar
   3    1   21 1
   4    2    3 ar
   5    2   22 1
   6    3    4 ar
   7    3   14 1
   8    4    7 ar
   9    4   23 1
  10    5    7 ar
  11    5    6 1
  12    6    9 2
  13    6   24 1
  14    7    8 1
  15    8    9 1
  16    8   25 1
  17    8   26 1
  18    9   10 1
  19   10   11 1
  20   10   12 2
  21   11   13 1
  22   11   15 1
  23   12   27 1
  24   12   28 1
  25   13   29 1
  26   13   30 1
  27   13   31 1
  28   15   16 1
  29   15   32 1
  30   15   33 1
  31   16   19 1
  32   16   18 2
  33   17   18 1
  34   17   20 2
  35   17   34 1
  36   18   35 1
  37   19   20 1
  38   20   36 1

#	End of record

