#	Name: ASD07931876
#	Creating user name:	WinNT
#	Creation time:	15. 06. 2019 21:13

#	Modifying user name:	WinNT
#	Modification time:	15. 06. 2019 21:13

#	Program:	/corina/corina34_cracker 3.40 0067  02.08.2006

@<TRIPOS>MOLECULE
ASD07931876
  63   66    0    0    0
SMALL
NO_CHARGES


@<TRIPOS>ATOM
   1 C1            -0.0039     1.3790     0.0446 C.2     
   2 C2            -0.0084     0.0166     0.0524 C.2     
   3 C3             1.1931    -0.7005     0.0023 C.2     
   4 C4             2.3787    -0.0205    -0.0548 C.2     
   5 C5             2.3541     1.4433    -0.0618 C.2     
   6 N6             1.1699     2.0853    -0.0121 N.am    
   7 C7            -1.2862     2.1079     0.0920 C.2     
   8 O8            -1.2935     3.3190     0.1992 O.2     
   9 N9            -2.4492     1.4311     0.0165 N.am    
  10 O10            3.3953     2.0759    -0.1118 O.2     
  11 C11            4.4783    -0.7148    -1.1360 C.2     
  12 N12            5.4893    -1.4741    -0.8125 N.2     
  13 C13            5.2930    -1.9767     0.4156 C.2     
  14 C14            4.1154    -1.5140     0.8763 C.2     
  15 N15            3.5927    -0.7114    -0.1051 N.pl3   
  16 C16            6.2284    -2.9004     1.1522 C.3     
  17 C17            1.1367     3.5499    -0.0191 C.3     
  18 C18            1.0281     4.0646     1.4176 C.3     
  19 O19            2.2116     3.7167     2.1389 O.3     
  20 C20           -3.7222     2.1546     0.0635 C.3     
  21 C21           -4.0840     2.6421    -1.3409 C.3     
  22 O22           -4.9414     0.0613    -0.2720 O.3     
  23 C23           -4.8203     1.2219     0.5782 C.3     
  24 C24           -4.4280     0.6235     1.9532 C.3     
  25 C25           -5.2583    -0.6827     1.9872 C.3     
  26 C26           -5.5796    -0.9647     0.5067 C.3     
  27 C27           -5.0406    -2.3161     0.1137 C.ar    
  28 C28           -5.7956    -3.4527     0.3371 C.ar    
  29 C29           -5.3017    -4.6922    -0.0226 C.ar    
  30 C30           -4.0516    -4.7957    -0.6068 C.ar    
  31 C31           -3.2970    -3.6581    -0.8304 C.ar    
  32 C32           -3.7942    -2.4182    -0.4749 C.ar    
  33 C33           -7.1570    -3.3399     0.9733 C.3     
  34 F34           -7.7221    -4.6139     1.0948 F       
  35 F35           -7.0327    -2.7620     2.2413 F       
  36 F36           -7.9801    -2.5389     0.1745 F       
  37 Cl37          -3.4303    -6.3525    -1.0584 Cl      
  38 H38           -0.9474    -0.5151     0.0980 H       
  39 H39            1.1839    -1.7805     0.0091 H       
  40 H40           -2.4434     0.4649    -0.0690 H       
  41 H41            4.3665    -0.1758    -2.0652 H       
  42 H42            3.6682    -1.7331     1.8346 H       
  43 H43            6.9333    -2.3115     1.7390 H       
  44 H44            5.6535    -3.5461     1.8160 H       
  45 H45            6.7751    -3.5119     0.4344 H       
  46 H46            2.0508     3.9319    -0.4737 H       
  47 H47            0.2753     3.8911    -0.5934 H       
  48 H48            0.9141     5.1485     1.4077 H       
  49 H49            0.1620     3.6125     1.9010 H       
  50 H50            2.2122     4.0121     3.0597 H       
  51 H51           -3.6293     3.0103     0.7324 H       
  52 H52           -5.0311     3.1804    -1.3059 H       
  53 H53           -3.3017     3.3066    -1.7076 H       
  54 H54           -4.1769     1.7864    -2.0098 H       
  55 H55           -5.7721     1.7487     0.6464 H       
  56 H56           -3.3605     0.4070     1.9928 H       
  57 H57           -4.7187     1.2904     2.7649 H       
  58 H58           -4.6712    -1.4970     2.4120 H       
  59 H59           -6.1767    -0.5363     2.5557 H       
  60 H60           -6.6576    -0.9332     0.3488 H       
  61 H61           -5.8912    -5.5801     0.1525 H       
  62 H62           -2.3211    -3.7383    -1.2860 H       
  63 H63           -3.2070    -1.5296    -0.6535 H       
@<TRIPOS>BOND
   1    1    2 2
   2    1    6 1
   3    1    7 1
   4    2    3 1
   5    2   38 1
   6    3    4 2
   7    3   39 1
   8    4    5 1
   9    4   15 1
  10    5    6 am
  11    5   10 2
  12    6   17 1
  13    7    8 2
  14    7    9 am
  15    9   20 1
  16    9   40 1
  17   11   12 2
  18   11   15 1
  19   11   41 1
  20   12   13 1
  21   13   14 2
  22   13   16 1
  23   14   15 1
  24   14   42 1
  25   16   43 1
  26   16   44 1
  27   16   45 1
  28   17   18 1
  29   17   46 1
  30   17   47 1
  31   18   19 1
  32   18   48 1
  33   18   49 1
  34   19   50 1
  35   20   21 1
  36   20   23 1
  37   20   51 1
  38   21   52 1
  39   21   53 1
  40   21   54 1
  41   22   26 1
  42   22   23 1
  43   23   24 1
  44   23   55 1
  45   24   25 1
  46   24   56 1
  47   24   57 1
  48   25   26 1
  49   25   58 1
  50   25   59 1
  51   26   27 1
  52   26   60 1
  53   27   28 ar
  54   27   32 ar
  55   28   29 ar
  56   28   33 1
  57   29   30 ar
  58   29   61 1
  59   30   31 ar
  60   30   37 1
  61   31   32 ar
  62   31   62 1
  63   32   63 1
  64   33   34 1
  65   33   35 1
  66   33   36 1

#	End of record

