#	Name: ASD04590262
#	Creating user name:	WinNT
#	Creation time:	15. 06. 2019 20:50

#	Modifying user name:	WinNT
#	Modification time:	15. 06. 2019 20:50

#	Program:	/corina/corina34_cracker 3.40 0067  02.08.2006

@<TRIPOS>MOLECULE
ASD04590262
  36   39    0    0    0
SMALL
NO_CHARGES


@<TRIPOS>ATOM
   1 C1            -0.0157     1.3069     0.0092 C.2     
   2 N2             0.0021    -0.0041     0.0020 N.2     
   3 N3             1.2662     1.7876    -0.0004 N.pl3   
   4 C4             2.1124     0.6949    -0.0144 C.ar    
   5 C5             1.2849    -0.4421    -0.0126 C.ar    
   6 C6             3.4917     0.5471    -0.0279 C.ar    
   7 C7             4.0468    -0.7155    -0.0396 C.ar    
   8 C8             3.2353    -1.8408    -0.0379 C.ar    
   9 C9             1.8649    -1.7144    -0.0258 C.ar    
  10 C10           -1.2358     2.1402     0.0197 C.2     
  11 N11           -1.2742     3.4582     0.0262 N.2     
  12 C12           -2.5675     1.6645     0.0184 C.2     
  13 C13           -3.3909     2.7412     0.0298 C.2     
  14 N14           -2.6165     3.8578     0.0348 N.pl3   
  15 N15           -2.9655     0.3180     0.0070 N.am    
  16 C16           -4.2758     0.0026     0.0072 C.2     
  17 C17           -4.6948    -1.4149    -0.0049 C.ar    
  18 O18           -5.1132     0.8840     0.0172 O.2     
  19 C19           -6.0511    -1.7450    -0.0048 C.ar    
  20 C20           -3.7360    -2.4292    -0.0222 C.ar    
  21 C21           -4.1338    -3.7501    -0.0333 C.ar    
  22 C22           -5.4798    -4.0705    -0.0273 C.ar    
  23 C23           -6.4354    -3.0699    -0.0160 C.ar    
  24 H24            1.5310     2.7207     0.0016 H       
  25 H25            4.1294     1.4187    -0.0297 H       
  26 H26            5.1208    -0.8289    -0.0505 H       
  27 H27            3.6825    -2.8238    -0.0472 H       
  28 H28            1.2395    -2.5950    -0.0244 H       
  29 H29           -4.4706     2.7160     0.0313 H       
  30 H30           -2.9377     4.7731     0.0426 H       
  31 H31           -2.2974    -0.3852    -0.0010 H       
  32 H32           -6.7980    -0.9649     0.0045 H       
  33 H33           -2.6851    -2.1804    -0.0272 H       
  34 H34           -3.3930    -4.5358    -0.0470 H       
  35 H35           -5.7860    -5.1061    -0.0361 H       
  36 H36           -7.4844    -3.3267    -0.0114 H       
@<TRIPOS>BOND
   1    1    2 2
   2    1    3 1
   3    1   10 1
   4    2    5 1
   5    3    4 1
   6    3   24 1
   7    4    5 ar
   8    4    6 ar
   9    5    9 ar
  10    6    7 ar
  11    6   25 1
  12    7    8 ar
  13    7   26 1
  14    8    9 ar
  15    8   27 1
  16    9   28 1
  17   10   11 2
  18   10   12 1
  19   11   14 1
  20   12   13 2
  21   12   15 1
  22   13   14 1
  23   13   29 1
  24   14   30 1
  25   15   16 am
  26   15   31 1
  27   16   17 1
  28   16   18 2
  29   17   19 ar
  30   17   20 ar
  31   19   23 ar
  32   19   32 1
  33   20   21 ar
  34   20   33 1
  35   21   22 ar
  36   21   34 1
  37   22   23 ar
  38   22   35 1
  39   23   36 1

#	End of record

