#	Name: ASD01814093
#	Creating user name:	WinNT
#	Creation time:	15. 06. 2019 19:31

#	Modifying user name:	WinNT
#	Modification time:	15. 06. 2019 19:31

#	Program:	/corina/corina34_cracker 3.40 0067  02.08.2006

@<TRIPOS>MOLECULE
ASD01814093
  49   53    0    0    0
SMALL
NO_CHARGES


@<TRIPOS>ATOM
   1 C1             1.1592     2.2499    -0.5156 C.ar    
   2 C2             0.7825     0.9157    -0.5002 C.ar    
   3 C3             1.7241    -0.0816    -0.3475 C.ar    
   4 C4             3.0711     0.2476    -0.2070 C.ar    
   5 C5             3.4515     1.6003    -0.2233 C.ar    
   6 C6             2.4875     2.5997    -0.3782 C.ar    
   7 N7             4.0211    -0.7401    -0.0528 N.pl3   
   8 C8             5.3262    -0.4755     0.0867 C.2     
   9 C9             5.8193     0.8137     0.0868 C.2     
  10 C10            4.8789     1.9349    -0.0738 C.2     
  11 O11            5.2643     3.0909    -0.0809 O.2     
  12 C12            7.2591     1.0629     0.2436 C.2     
  13 O13            7.7285     2.3266     0.2421 O.3     
  14 O14            8.0268     0.1294     0.3748 O.2     
  15 C15            3.5837    -2.1382    -0.0406 C.3     
  16 C16            3.4403    -2.6321    -1.4571 C.ar    
  17 C17            4.5225    -2.5815    -2.3197 C.ar    
  18 C18            4.3924    -3.0345    -3.6206 C.ar    
  19 C19            3.1763    -3.5394    -4.0592 C.ar    
  20 C20            2.0936    -3.5883    -3.1909 C.ar    
  21 C21            2.2300    -3.1401    -1.8917 C.ar    
  22 N22            3.0411    -3.9987    -5.3764 N.pl3   
  23 F23            1.3402    -1.3768    -0.3338 F       
  24 C24            1.9193    -4.5099    -5.9241 C.2     
  25 C25            2.2043    -4.8355    -7.2200 C.2     
  26 C26            3.5549    -4.5035    -7.4534 C.2     
  27 N27            4.0452    -4.0003    -6.3520 N.2     
  28 F28            5.7053    -2.0893    -1.8911 F       
  29 F29            2.8531     3.9002    -0.3942 F       
  30 C30            1.2659    -5.4296    -8.2010 C.ar    
  31 C31            1.6863    -5.7165    -9.5031 C.ar    
  32 C32            0.7720    -6.2702   -10.3799 C.ar    
  33 N33           -0.4621    -6.5088    -9.9615 N.ar    
  34 C34           -0.8282    -6.2270    -8.7268 C.ar    
  35 N35            0.0090    -5.7043    -7.8554 N.ar    
  36 H36            0.4108     3.0185    -0.6400 H       
  37 H37           -0.2597     0.6539    -0.6086 H       
  38 H38            6.0161    -1.2983     0.2035 H       
  39 H39            8.6829     2.4405     0.3483 H       
  40 H40            4.3222    -2.7454     0.4829 H       
  41 H41            2.6234    -2.2140     0.4696 H       
  42 H42            5.2360    -2.9950    -4.2938 H       
  43 H43            1.1463    -3.9805    -3.5303 H       
  44 H44            1.3877    -3.1784    -1.2169 H       
  45 H45            0.9686    -4.6387    -5.4282 H       
  46 H46            4.0895    -4.6376    -8.3821 H       
  47 H47            2.6992    -5.5105    -9.8161 H       
  48 H48            1.0602    -6.5050   -11.3939 H       
  49 H49           -1.8428    -6.4347    -8.4201 H       
@<TRIPOS>BOND
   1    1    2 ar
   2    1    6 ar
   3    1   36 1
   4    2    3 ar
   5    2   37 1
   6    3    4 ar
   7    3   23 1
   8    4    5 ar
   9    4    7 1
  10    5    6 ar
  11    5   10 1
  12    6   29 1
  13    7    8 1
  14    7   15 1
  15    8    9 2
  16    8   38 1
  17    9   10 1
  18    9   12 1
  19   10   11 2
  20   12   13 1
  21   12   14 2
  22   13   39 1
  23   15   16 1
  24   15   40 1
  25   15   41 1
  26   16   17 ar
  27   16   21 ar
  28   17   18 ar
  29   17   28 1
  30   18   19 ar
  31   18   42 1
  32   19   20 ar
  33   19   22 1
  34   20   21 ar
  35   20   43 1
  36   21   44 1
  37   22   24 1
  38   22   27 1
  39   24   25 2
  40   24   45 1
  41   25   26 1
  42   25   30 1
  43   26   27 2
  44   26   46 1
  45   30   31 ar
  46   30   35 ar
  47   31   32 ar
  48   31   47 1
  49   32   33 ar
  50   32   48 1
  51   33   34 ar
  52   34   35 ar
  53   34   49 1

#	End of record

