#	Name: ASD07930676
#	Creating user name:	WinNT
#	Creation time:	15. 06. 2019 21:12

#	Modifying user name:	WinNT
#	Modification time:	15. 06. 2019 21:12

#	Program:	/corina/corina34_cracker 3.40 0067  02.08.2006

@<TRIPOS>MOLECULE
ASD07930676
  43   45    0    0    0
SMALL
NO_CHARGES


@<TRIPOS>ATOM
   1 C1            -0.0178     1.4608     0.0101 C.3     
   2 N2             0.8031    -0.4153    -2.1619 N.2     
   3 N3            -0.8796    -1.7833    -1.2911 N.pl3   
   4 C4            -0.9005    -2.8248    -0.2586 C.3     
   5 C5            -1.2102    -2.1834     1.1010 C.3     
   6 S6             0.0275    -0.8859     1.4156 S.o2    
   7 N7             0.0021    -0.0041     0.0020 N.am    
   8 C8             0.0002    -0.7257    -1.1832 C.2     
   9 C9             0.4646    -3.5132    -0.1997 C.3     
  10 O10           -0.4323     0.0192     2.4099 O.2     
  11 O11            1.3354    -1.4387     1.4687 O.2     
  12 C12           -1.9634    -3.8404    -0.5898 C.2     
  13 S13           -3.3417    -4.2316     0.4300 S.3     
  14 C14           -3.9140    -5.4116    -0.7420 C.2     
  15 C15           -3.0715    -5.4456    -1.7936 C.2     
  16 C16           -2.0037    -4.5754    -1.7055 C.2     
  17 C17           -5.1311    -6.2383    -0.5962 C.ar    
  18 C18           -5.4938    -7.1480    -1.5927 C.ar    
  19 C19           -6.6533    -7.9044    -1.4048 C.ar    
  20 C20           -7.3984    -7.7235    -0.2383 C.ar    
  21 N21           -7.0213    -6.8540     0.6771 N.ar    
  22 C22           -5.9321    -6.1257     0.5423 C.ar    
  23 C23           -7.0716    -8.8511    -2.3945 C.1     
  24 C24           -7.4145    -9.6271    -3.2059 C.1     
  25 Cl25          -0.7964    -4.4526    -2.9468 Cl      
  26 C26           -7.8444   -10.6002    -4.2233 C.3     
  27 H27            1.0048     1.8381     0.0023 H       
  28 H28           -0.5450     1.8219    -0.8730 H       
  29 H29           -0.5280     1.8123     0.9069 H       
  30 H30            0.7883    -0.9307    -2.9835 H       
  31 H31           -1.4804    -1.8399    -2.0505 H       
  32 H32           -2.2071    -1.7432     1.0811 H       
  33 H33           -1.1573    -2.9394     1.8845 H       
  34 H34            1.2322    -2.7780     0.0418 H       
  35 H35            0.4485    -4.2871     0.5677 H       
  36 H36            0.6857    -3.9650    -1.1667 H       
  37 H37           -3.2222    -6.0992    -2.6401 H       
  38 H38           -4.8946    -7.2631    -2.4838 H       
  39 H39           -8.2962    -8.3036    -0.0842 H       
  40 H40           -5.6604    -5.4249     1.3178 H       
  41 H41           -8.7636   -11.0861    -3.8959 H       
  42 H42           -8.0223   -10.0846    -5.1670 H       
  43 H43           -7.0658   -11.3506    -4.3604 H       
@<TRIPOS>BOND
   1    1    7 1
   2    1   27 1
   3    1   28 1
   4    1   29 1
   5    2    8 2
   6    2   30 1
   7    3    4 1
   8    3    8 1
   9    3   31 1
  10    4    5 1
  11    4    9 1
  12    4   12 1
  13    5    6 1
  14    5   32 1
  15    5   33 1
  16    6    7 am
  17    6   10 2
  18    6   11 2
  19    7    8 1
  20    9   34 1
  21    9   35 1
  22    9   36 1
  23   12   13 1
  24   12   16 2
  25   13   14 1
  26   14   15 2
  27   14   17 1
  28   15   16 1
  29   15   37 1
  30   16   25 1
  31   17   18 ar
  32   17   22 ar
  33   18   19 ar
  34   18   38 1
  35   19   20 ar
  36   19   23 1
  37   20   21 ar
  38   20   39 1
  39   21   22 ar
  40   22   40 1
  41   23   24 3
  42   24   26 1
  43   26   41 1
  44   26   42 1
  45   26   43 1

#	End of record

