#	Name: ASD01884879
#	Creating user name:	WinNT
#	Creation time:	15. 06. 2019 19:49

#	Modifying user name:	WinNT
#	Modification time:	15. 06. 2019 19:49

#	Program:	/corina/corina34_cracker 3.40 0067  02.08.2006

@<TRIPOS>MOLECULE
ASD01884879
  44   48    0    0    0
SMALL
NO_CHARGES


@<TRIPOS>ATOM
   1 C1            -0.0164     1.3605     0.0095 C.ar    
   2 C2             0.0021    -0.0041     0.0020 C.ar    
   3 C3             1.2157    -0.7019    -0.0133 C.ar    
   4 C4             2.4186    -0.0067    -0.0210 C.ar    
   5 C5             2.4036     1.3875    -0.0134 C.ar    
   6 C6             1.1767     2.0775     0.0020 C.ar    
   7 C7             3.4481     2.4157    -0.0183 C.2     
   8 C8             2.8278     3.6059    -0.0062 C.2     
   9 N9             1.4697     3.4250     0.0060 N.pl3   
  10 C10            1.2172    -2.1834    -0.0208 C.2     
  11 C11            0.7030    -2.8756    -1.1011 C.2     
  12 C12            1.7514    -2.9033     1.0774 C.2     
  13 C13            1.7534    -4.2481     1.0708 C.2     
  14 N14            1.2425    -4.9443     0.0095 N.pl3   
  15 C15            0.7185    -4.2826    -1.0799 C.2     
  16 Cl16           0.0474    -2.0220    -2.4632 Cl      
  17 C17            1.1140    -6.2725    -0.2668 C.2     
  18 N18            0.5446    -6.3754    -1.4444 N.2     
  19 N19            0.3090    -5.2078    -1.9305 N.2     
  20 O20            1.5038    -7.3000     0.5296 O.3     
  21 C21            0.5206     4.4550     0.0201 C.ar    
  22 C22            1.2726    -8.6230     0.0414 C.3     
  23 C23            1.7740    -9.6404     1.0682 C.3     
  24 C24           -0.5308     4.4565    -0.8867 C.ar    
  25 N25           -1.4259     5.4240    -0.8766 N.ar    
  26 C26           -1.3623     6.4204    -0.0153 C.ar    
  27 C27           -0.3445     6.4887     0.9181 C.ar    
  28 C28            0.6145     5.4898     0.9476 C.ar    
  29 H29           -0.9600     1.8859     0.0168 H       
  30 H30           -0.9290    -0.5513     0.0083 H       
  31 H31            3.3568    -0.5415    -0.0325 H       
  32 H32            4.5148     2.2476    -0.0296 H       
  33 H33            3.3255     4.5644    -0.0065 H       
  34 H34            2.1590    -2.3693     1.9231 H       
  35 H35            2.1636    -4.7850     1.9134 H       
  36 H36            0.2049    -8.7683    -0.1226 H       
  37 H37            1.8068    -8.7619    -0.8985 H       
  38 H38            1.5977   -10.6495     0.6958 H       
  39 H39            2.8417    -9.4950     1.2322 H       
  40 H40            1.2398    -9.5014     2.0081 H       
  41 H41           -0.6159     3.6569    -1.6078 H       
  42 H42           -2.1155     7.1941    -0.0396 H       
  43 H43           -0.3006     7.3089     1.6194 H       
  44 H44            1.4205     5.5176     1.6658 H       
@<TRIPOS>BOND
   1    1    2 ar
   2    1    6 ar
   3    1   29 1
   4    2    3 ar
   5    2   30 1
   6    3    4 ar
   7    3   10 1
   8    4    5 ar
   9    4   31 1
  10    5    6 ar
  11    5    7 1
  12    6    9 1
  13    7    8 2
  14    7   32 1
  15    8    9 1
  16    8   33 1
  17    9   21 1
  18   10   11 2
  19   10   12 1
  20   11   16 1
  21   11   15 1
  22   12   13 2
  23   12   34 1
  24   13   14 1
  25   13   35 1
  26   14   15 1
  27   14   17 1
  28   15   19 2
  29   17   18 2
  30   17   20 1
  31   18   19 1
  32   20   22 1
  33   21   24 ar
  34   21   28 ar
  35   22   23 1
  36   22   36 1
  37   22   37 1
  38   23   38 1
  39   23   39 1
  40   23   40 1
  41   24   25 ar
  42   24   41 1
  43   25   26 ar
  44   26   27 ar
  45   26   42 1
  46   27   28 ar
  47   27   43 1
  48   28   44 1

#	End of record

