#	Name: ASD09750013
#	Creating user name:	WinNT
#	Creation time:	15. 06. 2019 21:23

#	Modifying user name:	WinNT
#	Modification time:	15. 06. 2019 21:23

#	Program:	/corina/corina34_cracker 3.40 0067  02.08.2006

@<TRIPOS>MOLECULE
ASD09750013
  43   46    0    0    0
SMALL
NO_CHARGES


@<TRIPOS>ATOM
   1 C1             0.3297     1.9220     0.4757 C.ar    
   2 C2             0.2219     0.5418     0.4037 C.ar    
   3 C3             1.3503    -0.2443     0.2987 C.ar    
   4 C4             2.6134     0.3491     0.2640 C.ar    
   5 C5             2.7233     1.7549     0.3373 C.ar    
   6 C6             1.5670     2.5303     0.4433 C.ar    
   7 C7             3.8217    -0.4846     0.1525 C.2     
   8 O8             4.8220    -0.3052    -0.7306 O.3     
   9 O9             4.1363     3.6165     0.3661 O.co2   
  10 C10            4.0464     2.3979     0.3023 C.2     
  11 O11            5.0567     1.7140     0.2093 O.co2   
  12 C12            4.1218    -1.5761     0.9382 C.2     
  13 C13            5.3518    -2.0696     0.4979 C.2     
  14 C14            5.7610    -1.2548    -0.5429 C.2     
  15 C15            6.2296     0.2835    -3.0494 C.2     
  16 C16            7.1740    -0.6151    -2.3807 C.2     
  17 C17            6.9566    -1.3940    -1.2822 C.2     
  18 O18            5.0841     0.4325    -2.6645 O.2     
  19 N19            6.7155     0.9249    -4.0990 N.am    
  20 C20            7.9857     0.7199    -4.4665 C.2     
  21 S21            8.6659    -0.4567    -3.3289 S.3     
  22 S22            8.7959     1.4482    -5.7871 S.2     
  23 C23            5.8694     1.8526    -4.8538 C.3     
  24 C24            5.9947     3.2359    -4.2692 C.ar    
  25 C25            6.9647     4.1004    -4.7411 C.ar    
  26 C26            7.0797     5.3693    -4.2048 C.ar    
  27 C27            6.2245     5.7738    -3.1969 C.ar    
  28 C28            5.2540     4.9096    -2.7256 C.ar    
  29 C29            5.1361     3.6423    -3.2649 C.ar    
  30 H30           -0.5624     2.5257     0.5532 H       
  31 H31           -0.7533     0.0784     0.4305 H       
  32 H32            1.2567    -1.3188     0.2435 H       
  33 H33            1.6414     3.6063     0.4995 H       
  34 H34            3.5202    -1.9741     1.7419 H       
  35 H35            5.8830    -2.9217     0.8955 H       
  36 H36            7.6987    -2.1173    -0.9777 H       
  37 H37            6.1876     1.8685    -5.8962 H       
  38 H38            4.8309     1.5264    -4.7958 H       
  39 H39            7.6328     3.7844    -5.5286 H       
  40 H40            7.8380     6.0445    -4.5730 H       
  41 H41            6.3148     6.7649    -2.7774 H       
  42 H42            4.5860     5.2256    -1.9379 H       
  43 H43            4.3779     2.9671    -2.8967 H       
@<TRIPOS>BOND
   1    1    2 ar
   2    1    6 ar
   3    1   30 1
   4    2    3 ar
   5    2   31 1
   6    3    4 ar
   7    3   32 1
   8    4    5 ar
   9    4    7 1
  10    5    6 ar
  11    5   10 1
  12    6   33 1
  13    7    8 1
  14    7   12 2
  15    8   14 1
  16    9   10 ar
  17   10   11 ar
  18   12   13 1
  19   12   34 1
  20   13   14 2
  21   13   35 1
  22   14   17 1
  23   15   16 1
  24   15   18 2
  25   15   19 am
  26   16   17 2
  27   16   21 1
  28   17   36 1
  29   19   20 am
  30   19   23 1
  31   20   21 1
  32   20   22 2
  33   23   24 1
  34   23   37 1
  35   23   38 1
  36   24   25 ar
  37   24   29 ar
  38   25   26 ar
  39   25   39 1
  40   26   27 ar
  41   26   40 1
  42   27   28 ar
  43   27   41 1
  44   28   29 ar
  45   28   42 1
  46   29   43 1

#	End of record

