#	Name: ASD01813653
#	Creating user name:	WinNT
#	Creation time:	15. 06. 2019 19:30

#	Modifying user name:	WinNT
#	Modification time:	15. 06. 2019 19:30

#	Program:	/corina/corina34_cracker 3.40 0067  02.08.2006

@<TRIPOS>MOLECULE
ASD01813653
  50   53    0    0    0
SMALL
NO_CHARGES


@<TRIPOS>ATOM
   1 C1             0.0980     1.4755     0.3561 C.ar    
   2 C2             0.0799     0.0882     0.3483 C.ar    
   3 C3             1.2501    -0.6306     0.2176 C.ar    
   4 C4             2.4672     0.0383     0.0917 C.ar    
   5 C5             2.4808     1.4430     0.1001 C.ar    
   6 C6             1.2892     2.1560     0.2330 C.ar    
   7 N7             3.6443    -0.6677    -0.0386 N.pl3   
   8 C8             4.8374    -0.0728    -0.1610 C.2     
   9 C9             4.9774     1.3006    -0.1659 C.2     
  10 C10            3.7746     2.1383    -0.0339 C.2     
  11 O11            3.8449     3.3548    -0.0329 O.2     
  12 C12            6.3053     1.9158    -0.3015 C.2     
  13 O13            6.4290     3.2582    -0.3048 O.3     
  14 O14            7.2920     1.2142    -0.4106 O.2     
  15 C15            3.5871    -2.1316    -0.0427 C.3     
  16 C16            3.4445    -2.6248    -1.4595 C.ar    
  17 C17            4.5596    -2.7692    -2.2634 C.ar    
  18 N18            4.4482    -3.1990    -3.5042 N.ar    
  19 C19            3.2700    -3.5092    -4.0296 C.ar    
  20 C20            2.1041    -3.3873    -3.2754 C.ar    
  21 C21            2.1927    -2.9437    -1.9678 C.ar    
  22 F22            1.2170    -1.9812     0.2121 F       
  23 C23            3.1928    -3.9890    -5.4303 C.ar    
  24 C24            1.9579    -4.2197    -6.0302 C.ar    
  25 N25            1.8842    -4.6461    -7.2749 N.ar    
  26 C26            2.9695    -4.8704    -8.0004 C.ar    
  27 C27            4.2398    -4.6622    -7.4686 C.ar    
  28 C28            4.3609    -4.2107    -6.1700 C.ar    
  29 N29            2.8392    -5.3194    -9.3077 N.pl3   
  30 C30            4.0307    -5.6751   -10.0823 C.3     
  31 C31            1.5101    -5.4375    -9.9125 C.3     
  32 H32           -0.8268     2.0244     0.4546 H       
  33 H33           -0.8601    -0.4344     0.4459 H       
  34 H34            1.3006     3.2359     0.2390 H       
  35 H35            5.7198    -0.6878    -0.2589 H       
  36 H36            7.3225     3.6164    -0.3965 H       
  37 H37            4.5033    -2.5323     0.3911 H       
  38 H38            2.7314    -2.4634     0.5453 H       
  39 H39            5.5354    -2.5261    -1.8694 H       
  40 H40            1.1456    -3.6394    -3.7043 H       
  41 H41            1.3068    -2.8396    -1.3589 H       
  42 H42            1.0510    -4.0478    -5.4695 H       
  43 H43            5.1196    -4.8479    -8.0668 H       
  44 H44            5.3334    -4.0403    -5.7322 H       
  45 H45            4.2578    -6.7310    -9.9352 H       
  46 H46            3.8460    -5.4871   -11.1399 H       
  47 H47            4.8748    -5.0719    -9.7480 H       
  48 H48            0.7536    -5.1308    -9.1901 H       
  49 H49            1.4531    -4.7967   -10.7924 H       
  50 H50            1.3347    -6.4727   -10.2050 H       
@<TRIPOS>BOND
   1    1    2 ar
   2    1    6 ar
   3    1   32 1
   4    2    3 ar
   5    2   33 1
   6    3    4 ar
   7    3   22 1
   8    4    5 ar
   9    4    7 1
  10    5    6 ar
  11    5   10 1
  12    6   34 1
  13    7    8 1
  14    7   15 1
  15    8    9 2
  16    8   35 1
  17    9   10 1
  18    9   12 1
  19   10   11 2
  20   12   13 1
  21   12   14 2
  22   13   36 1
  23   15   16 1
  24   15   37 1
  25   15   38 1
  26   16   17 ar
  27   16   21 ar
  28   17   18 ar
  29   17   39 1
  30   18   19 ar
  31   19   20 ar
  32   19   23 1
  33   20   21 ar
  34   20   40 1
  35   21   41 1
  36   23   24 ar
  37   23   28 ar
  38   24   25 ar
  39   24   42 1
  40   25   26 ar
  41   26   27 ar
  42   26   29 1
  43   27   28 ar
  44   27   43 1
  45   28   44 1
  46   29   30 1
  47   29   31 1
  48   30   45 1
  49   30   46 1
  50   30   47 1
  51   31   48 1
  52   31   49 1
  53   31   50 1

#	End of record

