#	Name: ASD01180121
#	Creating user name:	WinNT
#	Creation time:	15. 06. 2019 19:06

#	Modifying user name:	WinNT
#	Modification time:	15. 06. 2019 19:06

#	Program:	/corina/corina34_cracker 3.40 0067  02.08.2006

@<TRIPOS>MOLECULE
ASD01180121
  27   27    0    0    0
SMALL
NO_CHARGES


@<TRIPOS>ATOM
   1 C1            -0.0171     1.4126     0.0098 C.2     
   2 C2             0.0021    -0.0041     0.0020 C.2     
   3 C3             1.1819    -0.6640    -0.0128 C.2     
   4 O4             1.0281     2.0352     0.0032 O.2     
   5 O5            -1.1948     2.0714     0.0190 O.3     
   6 C6             1.2018    -2.1318    -0.0209 C.ar    
   7 C7             2.4265    -2.8234    -0.0363 C.ar    
   8 C8             2.4306    -4.2115    -0.0438 C.ar    
   9 C9             1.2382    -4.9074    -0.0362 C.ar    
  10 C10            0.0291    -4.2299    -0.0210 C.ar    
  11 C11            0.0025    -2.8528    -0.0075 C.ar    
  12 C12           -1.2636    -5.0044    -0.0134 C.3     
  13 F13           -0.9859    -6.3755    -0.0239 F       
  14 F14           -1.9919    -4.6849     1.1376 F       
  15 F15           -2.0132    -4.6718    -1.1468 F       
  16 N16            3.6253    -2.1211    -0.0444 N.pl3   
  17 C17           -1.1394     3.4993     0.0265 C.3     
  18 H18           -0.9258    -0.5567     0.0079 H       
  19 H19            2.1097    -0.1113    -0.0187 H       
  20 H20            3.3679    -4.7479    -0.0560 H       
  21 H21            1.2475    -5.9873    -0.0425 H       
  22 H22           -0.9425    -2.3302     0.0088 H       
  23 H23            3.6192    -1.1511    -0.0394 H       
  24 H24            4.4683    -2.6008    -0.0550 H       
  25 H25           -0.6076     3.8376     0.9158 H       
  26 H26           -0.6161     3.8473    -0.8641 H       
  27 H27           -2.1522     3.9022     0.0335 H       
@<TRIPOS>BOND
   1    1    2 1
   2    1    4 2
   3    1    5 1
   4    2    3 2
   5    2   18 1
   6    3    6 1
   7    3   19 1
   8    5   17 1
   9    6    7 ar
  10    6   11 ar
  11    7    8 ar
  12    7   16 1
  13    8    9 ar
  14    8   20 1
  15    9   10 ar
  16    9   21 1
  17   10   11 ar
  18   10   12 1
  19   11   22 1
  20   12   13 1
  21   12   14 1
  22   12   15 1
  23   16   23 1
  24   16   24 1
  25   17   25 1
  26   17   26 1
  27   17   27 1

#	End of record

