#	Name: ASD03090493
#	Creating user name:	WinNT
#	Creation time:	15. 06. 2019 20:28

#	Modifying user name:	WinNT
#	Modification time:	15. 06. 2019 20:28

#	Program:	/corina/corina34_cracker 3.40 0067  02.08.2006

@<TRIPOS>MOLECULE
ASD03090493
  35   37    0    0    0
SMALL
NO_CHARGES


@<TRIPOS>ATOM
   1 C1            -0.0181     1.5035     0.0018 C.2     
   2 C2             0.0032    -0.0034    -0.0070 C.3     
   3 O3             1.0235     2.1247    -0.0120 O.2     
   4 N4            -1.1946     2.1607     0.0195 N.am    
   5 C5            -1.2153     3.5527     0.1325 C.ar    
   6 C6            -2.4238     4.2438     0.0375 C.ar    
   7 C7            -2.3945     5.6220     0.1557 C.ar    
   8 C8            -1.1572     6.2351     0.3627 C.ar    
   9 N9            -0.0611     5.4965     0.4397 N.ar    
  10 N10           -0.0903     4.2176     0.3353 N.ar    
  11 S11           -1.0549     7.9870     0.5206 S.3     
  12 C12            0.7195     8.2714     0.7683 C.3     
  13 F13            1.4279     7.7889    -0.3373 F       
  14 F14            0.9564     9.6428     0.9117 F       
  15 F15            1.1425     7.6020     1.9216 F       
  16 N16            5.3364    -1.8072     0.1675 N.pl3   
  17 C17            5.5187    -1.8686     1.5223 C.2     
  18 C18            4.3963    -1.4882     2.1527 C.2     
  19 C19            3.4149    -1.1560     1.1171 C.ar    
  20 C20            2.0924    -0.7089     1.1408 C.ar    
  21 C21            1.4308    -0.4855    -0.0334 C.ar    
  22 C22            2.0629    -0.6994    -1.2508 C.ar    
  23 C23            3.3669    -1.1407    -1.2973 C.ar    
  24 C24            4.0598    -1.3748    -0.1138 C.ar    
  25 H25           -0.4906    -0.3790     0.8892 H       
  26 H26           -0.5202    -0.3689    -0.8905 H       
  27 H27           -2.0270     1.6670    -0.0464 H       
  28 H28           -3.3538     3.7189    -0.1238 H       
  29 H29           -3.3008     6.2057     0.0895 H       
  30 H30            6.0078    -2.0309    -0.4958 H       
  31 H31            6.4304    -2.1777     2.0118 H       
  32 H32            4.2453    -1.4369     3.2209 H       
  33 H33            1.5939    -0.5412     2.0841 H       
  34 H34            1.5267    -0.5183    -2.1707 H       
  35 H35            3.8498    -1.3045    -2.2494 H       
@<TRIPOS>BOND
   1    1    2 1
   2    1    3 2
   3    1    4 am
   4    2   21 1
   5    2   25 1
   6    2   26 1
   7    4    5 1
   8    4   27 1
   9    5    6 ar
  10    5   10 ar
  11    6    7 ar
  12    6   28 1
  13    7    8 ar
  14    7   29 1
  15    8    9 ar
  16    8   11 1
  17    9   10 ar
  18   11   12 1
  19   12   13 1
  20   12   14 1
  21   12   15 1
  22   16   17 1
  23   16   24 1
  24   16   30 1
  25   17   18 2
  26   17   31 1
  27   18   19 1
  28   18   32 1
  29   19   20 ar
  30   19   24 ar
  31   20   21 ar
  32   20   33 1
  33   21   22 ar
  34   22   23 ar
  35   22   34 1
  36   23   24 ar
  37   23   35 1

#	End of record

