#	Name: ASD01816311
#	Creating user name:	WinNT
#	Creation time:	15. 06. 2019 19:35

#	Modifying user name:	WinNT
#	Modification time:	15. 06. 2019 19:35

#	Program:	/corina/corina34_cracker 3.40 0067  02.08.2006

@<TRIPOS>MOLECULE
ASD01816311
  57   63    0    0    0
SMALL
NO_CHARGES


@<TRIPOS>ATOM
   1 C1            -0.0167     1.3813     0.0096 C.ar    
   2 C2             0.0021    -0.0041     0.0020 C.ar    
   3 C3             1.1983    -0.6909    -0.0126 C.ar    
   4 C4             2.4015     0.0059    -0.0203 C.ar    
   5 C5             2.3790     1.4106    -0.0130 C.ar    
   6 C6             1.1663     2.0917     0.0022 C.ar    
   7 N7             3.6053    -0.6772    -0.0345 N.pl3   
   8 C8             4.7970    -0.0586    -0.0425 C.2     
   9 C9             4.8999     1.3103    -0.0366 C.2     
  10 C10            3.6670     2.1301    -0.0214 C.2     
  11 C11            5.9971     2.2729    -0.0415 C.2     
  12 N12            5.4245     3.4960    -0.0303 N.am    
  13 N13            4.0323     3.3799    -0.0185 N.2     
  14 O14            7.1912     2.0229    -0.0531 O.2     
  15 C15            3.5778    -2.1419    -0.0406 C.3     
  16 C16            3.5552    -2.6380    -1.4634 C.ar    
  17 C17            4.7429    -2.8875    -2.1262 C.ar    
  18 C18            4.7254    -3.3418    -3.4304 C.ar    
  19 C19            3.5136    -3.5483    -4.0758 C.ar    
  20 C20            2.3228    -3.2974    -3.4076 C.ar    
  21 C21            2.3467    -2.8481    -2.1017 C.ar    
  22 N22            3.4926    -4.0089    -5.3997 N.pl3   
  23 C23            2.3876    -4.2504    -6.1408 C.2     
  24 C24            2.7940    -4.6802    -7.3579 C.2     
  25 C25            4.1931    -4.7025    -7.3618 C.2     
  26 N26            4.6126    -4.2947    -6.1911 N.2     
  27 C27            6.1214     4.6994    -0.0305 C.2     
  28 S28            7.8750     4.8601    -0.0530 S.3     
  29 N29            5.5812     5.8783    -0.0198 N.2     
  30 C30            6.4035     6.9172    -0.0220 C.2     
  31 C31            7.7147     6.6149    -0.0374 C.2     
  32 C32            5.9127     8.3168    -0.0106 C.ar    
  33 C33            4.5436     8.5778     0.0035 C.ar    
  34 C34            4.0926     9.8820     0.0145 C.ar    
  35 C35            4.9964    10.9292     0.0112 C.ar    
  36 C36            6.3563    10.6761    -0.0032 C.ar    
  37 C37            6.8188     9.3759    -0.0081 C.ar    
  38 H38           -0.9602     1.9068     0.0169 H       
  39 H39           -0.9289    -0.5515     0.0079 H       
  40 H40            1.2003    -1.7709    -0.0177 H       
  41 H41            1.1506     3.1715     0.0081 H       
  42 H42            5.6983    -0.6536    -0.0535 H       
  43 H43            4.4656    -2.5241     0.4633 H       
  44 H44            2.6861    -2.4908     0.4801 H       
  45 H45            5.6852    -2.7267    -1.6236 H       
  46 H46            5.6534    -3.5358    -3.9477 H       
  47 H47            1.3787    -3.4567    -3.9073 H       
  48 H48            1.4207    -2.6527    -1.5814 H       
  49 H49            1.3645    -4.1235    -5.8190 H       
  50 H50            2.1519    -4.9571    -8.1809 H       
  51 H51            4.8191    -5.0005    -8.1899 H       
  52 H52            8.5283     7.3252    -0.0412 H       
  53 H53            3.8370     7.7610     0.0054 H       
  54 H54            3.0320    10.0855     0.0254 H       
  55 H55            4.6390    11.9484     0.0195 H       
  56 H56            7.0574    11.4976    -0.0061 H       
  57 H57            7.8807     9.1794    -0.0193 H       
@<TRIPOS>BOND
   1    1    2 ar
   2    1    6 ar
   3    1   38 1
   4    2    3 ar
   5    2   39 1
   6    3    4 ar
   7    3   40 1
   8    4    5 ar
   9    4    7 1
  10    5    6 ar
  11    5   10 1
  12    6   41 1
  13    7    8 1
  14    7   15 1
  15    8    9 2
  16    8   42 1
  17    9   10 1
  18    9   11 1
  19   10   13 2
  20   11   12 am
  21   11   14 2
  22   12   13 1
  23   12   27 1
  24   15   16 1
  25   15   43 1
  26   15   44 1
  27   16   17 ar
  28   16   21 ar
  29   17   18 ar
  30   17   45 1
  31   18   19 ar
  32   18   46 1
  33   19   20 ar
  34   19   22 1
  35   20   21 ar
  36   20   47 1
  37   21   48 1
  38   22   23 1
  39   22   26 1
  40   23   24 2
  41   23   49 1
  42   24   25 1
  43   24   50 1
  44   25   26 2
  45   25   51 1
  46   27   29 2
  47   27   28 1
  48   28   31 1
  49   29   30 1
  50   30   31 2
  51   30   32 1
  52   31   52 1
  53   32   33 ar
  54   32   37 ar
  55   33   34 ar
  56   33   53 1
  57   34   35 ar
  58   34   54 1
  59   35   36 ar
  60   35   55 1
  61   36   37 ar
  62   36   56 1
  63   37   57 1

#	End of record

