#	Name: ASD01883851
#	Creating user name:	WinNT
#	Creation time:	15. 06. 2019 19:47

#	Modifying user name:	WinNT
#	Modification time:	15. 06. 2019 19:47

#	Program:	/corina/corina34_cracker 3.40 0067  02.08.2006

@<TRIPOS>MOLECULE
ASD01883851
  45   49    0    0    0
SMALL
NO_CHARGES


@<TRIPOS>ATOM
   1 O1            -0.0163     1.3537     0.0095 O.3     
   2 C2            -0.0566    -0.0034    -0.0161 C.2     
   3 C3             1.0343    -2.1288    -0.1348 C.2     
   4 C4             1.1011    -0.7238    -0.1106 C.2     
   5 C5            -1.2925    -0.6777     0.0607 C.2     
   6 C6            -1.3351    -2.0249     0.0364 C.2     
   7 N7             1.3735    -4.2328    -0.2028 N.2     
   8 N8             1.9492    -3.0822    -0.2181 N.2     
   9 N9            -0.1864    -2.7543    -0.0624 N.pl3   
  10 C10            0.0773    -4.0909    -0.1090 C.2     
  11 C11           -0.9397    -5.2021    -0.0615 C.3     
  12 C12           -1.1835    -5.6084     1.3933 C.3     
  13 C13           -2.2746    -6.6465     1.6634 C.3     
  14 C14           -0.8005    -7.0319     1.8029 C.3     
  15 Cl15           2.6347     0.0848    -0.2003 Cl      
  16 C16           -0.4443     1.9929     1.2138 C.3     
  17 C17           -1.6605     3.9448     2.1474 C.3     
  18 C18            0.3697     3.0172     3.3368 C.ar    
  19 C19            0.7426     2.1516     2.1618 C.3     
  20 C20           -0.9947     3.3871     0.8910 C.3     
  21 C21           -0.7314     3.8433     3.3288 C.ar    
  22 C22           -1.0159     4.6212     4.4440 C.ar    
  23 C23           -0.2059     4.5703     5.5593 C.ar    
  24 C24            0.8979     3.7378     5.5688 C.ar    
  25 C25            1.1829     2.9656     4.4620 C.ar    
  26 H26           -2.2093    -0.1123     0.1396 H       
  27 H27           -2.2871    -2.5313     0.0962 H       
  28 H28           -1.8744    -4.8582    -0.5043 H       
  29 H29           -0.5667    -6.0601    -0.6207 H       
  30 H30           -1.0470    -4.8180     2.1314 H       
  31 H31           -2.8556    -6.5392     2.5794 H       
  32 H32           -2.8186    -7.0399     0.8048 H       
  33 H33           -0.3747    -7.6789     1.0360 H       
  34 H34           -0.4117    -7.1782     2.8106 H       
  35 H35           -1.2193     1.3938     1.6919 H       
  36 H36           -1.9196     4.9906     1.9827 H       
  37 H37           -2.5685     3.3785     2.3546 H       
  38 H38            1.0489     1.1694     2.5219 H       
  39 H39            1.5723     2.6118     1.6252 H       
  40 H40           -0.1787     4.0424     0.5863 H       
  41 H41           -1.7282     3.3154     0.0879 H       
  42 H42           -1.8781     5.2715     4.4375 H       
  43 H43           -0.4331     5.1788     6.4222 H       
  44 H44            1.5351     3.6925     6.4397 H       
  45 H45            2.0454     2.3158     4.4700 H       
@<TRIPOS>BOND
   1    1    2 1
   2    1   16 1
   3    2    5 1
   4    2    4 2
   5    3    4 1
   6    3    9 1
   7    3    8 2
   8    4   15 1
   9    5    6 2
  10    5   26 1
  11    6    9 1
  12    6   27 1
  13    7    8 1
  14    7   10 2
  15    9   10 1
  16   10   11 1
  17   11   12 1
  18   11   28 1
  19   11   29 1
  20   12   13 1
  21   12   14 1
  22   12   30 1
  23   13   14 1
  24   13   31 1
  25   13   32 1
  26   14   33 1
  27   14   34 1
  28   16   20 1
  29   16   19 1
  30   16   35 1
  31   17   21 1
  32   17   20 1
  33   17   36 1
  34   17   37 1
  35   18   19 1
  36   18   21 ar
  37   18   25 ar
  38   19   38 1
  39   19   39 1
  40   20   40 1
  41   20   41 1
  42   21   22 ar
  43   22   23 ar
  44   22   42 1
  45   23   24 ar
  46   23   43 1
  47   24   25 ar
  48   24   44 1
  49   25   45 1

#	End of record

