#	Name: ASD01120045
#	Creating user name:	WinNT
#	Creation time:	15. 06. 2019 18:58

#	Modifying user name:	WinNT
#	Modification time:	15. 06. 2019 18:58

#	Program:	/corina/corina34_cracker 3.40 0067  02.08.2006

@<TRIPOS>MOLECULE
ASD01120045
  51   54    0    0    0
SMALL
NO_CHARGES


@<TRIPOS>ATOM
   1 C1            -0.1405     1.1984     0.2924 C.ar    
   2 C2            -0.1328    -0.1760     0.0166 C.ar    
   3 C3            -1.2853    -0.8218    -0.3730 C.ar    
   4 C4            -2.4760    -0.0952    -0.4940 C.ar    
   5 C5            -2.4760     1.2938    -0.2135 C.ar    
   6 C6            -1.2922     1.9252     0.1861 C.ar    
   7 N7            -3.6256    -0.6770    -0.8705 N.ar    
   8 C8            -4.7255     0.0300    -0.9755 C.ar    
   9 N9            -4.7732     1.3286    -0.7240 N.ar    
  10 C10           -3.6946     2.0015    -0.3451 C.ar    
  11 N11           -3.7591     3.3558    -0.0856 N.pl3   
  12 C12           -4.9931     4.0134    -0.1047 C.ar    
  13 C13           -6.1388     3.3500     0.3077 C.ar    
  14 C14           -7.3656     4.0086     0.2869 C.ar    
  15 C15           -7.4351     5.3318    -0.1485 C.ar    
  16 C16           -6.2886     5.9856    -0.5578 C.ar    
  17 C17           -5.0704     5.3339    -0.5318 C.ar    
  18 C18           -8.5953     3.3046     0.7263 C.2     
  19 O19            1.0100     1.8138     0.6755 O.3     
  20 O20            1.0240    -0.8784     0.1344 O.3     
  21 C21            0.9380     3.2158     0.9424 C.3     
  22 C22            2.3191     3.7277     1.3564 C.3     
  23 C23            0.9675    -2.2756    -0.1604 C.3     
  24 C24            2.3550    -2.8927     0.0264 C.3     
  25 C25           -8.9095     2.0565     0.3244 C.2     
  26 S26          -10.4383     1.6138     1.0797 S.3     
  27 C27          -10.5095     3.1343     1.8570 C.2     
  28 N28           -9.4790     3.8448     1.5530 N.2     
  29 C29          -11.6198     3.5794     2.7736 C.3     
  30 Cl30          -8.9620     6.1573    -0.1769 Cl      
  31 H31           -1.2706    -1.8808    -0.5840 H       
  32 H32           -1.2876     2.9836     0.4010 H       
  33 H33           -5.6327    -0.4698    -1.2813 H       
  34 H34           -2.9484     3.8513     0.1100 H       
  35 H35           -6.0799     2.3253     0.6437 H       
  36 H36           -6.3441     7.0101    -0.8950 H       
  37 H37           -4.1771     5.8493    -0.8524 H       
  38 H38            0.6102     3.7402     0.0448 H       
  39 H39            0.2270     3.3961     1.7487 H       
  40 H40            2.2642     4.7971     1.5600 H       
  41 H41            2.6470     3.2033     2.2539 H       
  42 H42            3.0301     3.5474     0.5501 H       
  43 H43            0.2605    -2.7606     0.5126 H       
  44 H44            0.6430    -2.4165    -1.1914 H       
  45 H45            2.6795    -2.7518     1.0574 H       
  46 H46            2.3119    -3.9584    -0.1985 H       
  47 H47            3.0620    -2.4077    -0.6466 H       
  48 H48           -8.3273     1.4380    -0.3427 H       
  49 H49          -12.3605     2.7844     2.8599 H       
  50 H50          -11.2101     3.8027     3.7587 H       
  51 H51          -12.0918     4.4730     2.3653 H       
@<TRIPOS>BOND
   1    1    2 ar
   2    1   19 1
   3    1    6 ar
   4    2    3 ar
   5    2   20 1
   6    3    4 ar
   7    3   31 1
   8    4    5 ar
   9    4    7 ar
  10    5    6 ar
  11    5   10 ar
  12    6   32 1
  13    7    8 ar
  14    8    9 ar
  15    8   33 1
  16    9   10 ar
  17   10   11 1
  18   11   12 1
  19   11   34 1
  20   12   13 ar
  21   12   17 ar
  22   13   14 ar
  23   13   35 1
  24   14   15 ar
  25   14   18 1
  26   15   16 ar
  27   15   30 1
  28   16   17 ar
  29   16   36 1
  30   17   37 1
  31   18   25 2
  32   18   28 1
  33   19   21 1
  34   20   23 1
  35   21   22 1
  36   21   38 1
  37   21   39 1
  38   22   40 1
  39   22   41 1
  40   22   42 1
  41   23   24 1
  42   23   43 1
  43   23   44 1
  44   24   45 1
  45   24   46 1
  46   24   47 1
  47   25   26 1
  48   25   48 1
  49   26   27 1
  50   27   28 2
  51   27   29 1
  52   29   49 1
  53   29   50 1
  54   29   51 1

#	End of record

