#	Name: ASD01911344
#	Creating user name:	WinNT
#	Creation time:	15. 06. 2019 19:57

#	Modifying user name:	WinNT
#	Modification time:	15. 06. 2019 19:57

#	Program:	/corina/corina34_cracker 3.40 0067  02.08.2006

@<TRIPOS>MOLECULE
ASD01911344
  34   36    0    0    0
SMALL
NO_CHARGES


@<TRIPOS>ATOM
   1 C1            -0.0173     1.4278     0.0099 C.ar    
   2 C2             0.0021    -0.0041     0.0020 C.1     
   3 C3             0.0180    -1.1779    -0.0044 C.1     
   4 C4             0.0374    -2.6098    -0.0123 C.ar    
   5 N5            -1.1129    -3.2809    -0.0049 N.ar    
   6 C6            -1.1402    -4.5946    -0.0119 C.ar    
   7 C7             0.0524    -5.3256    -0.0284 C.ar    
   8 C8             1.2779    -4.6525    -0.0354 C.ar    
   9 C9             1.2647    -3.2818    -0.0334 C.ar    
  10 C10           -2.4509    -5.3382    -0.0014 C.3     
  11 C11           -2.3257    -6.6239    -0.8152 C.3     
  12 N12           -1.1656    -7.4029    -0.3909 N.am    
  13 C13           -0.0121    -6.7996    -0.0390 C.2     
  14 O14            0.9616    -7.4612     0.2651 O.2     
  15 C15           -1.2564    -8.8645    -0.3469 C.3     
  16 C16            1.1812     2.1462     0.0023 C.ar    
  17 C17            1.1543     3.5264     0.0095 C.ar    
  18 C18           -0.0566     4.1981     0.0246 C.ar    
  19 C19           -1.2470     3.4924     0.0327 C.ar    
  20 C20           -1.2355     2.1136     0.0194 C.ar    
  21 Cl21           2.6415     4.4218     0.0001 Cl      
  22 H22            2.2100    -5.1979    -0.0469 H       
  23 H23            2.1911    -2.7267    -0.0387 H       
  24 H24           -2.7189    -5.5848     1.0260 H       
  25 H25           -3.2277    -4.7090    -0.4358 H       
  26 H26           -3.2270    -7.2219    -0.6802 H       
  27 H27           -2.2202    -6.3707    -1.8701 H       
  28 H28           -0.9558    -9.2763    -1.3103 H       
  29 H29           -0.5975    -9.2462     0.4330 H       
  30 H30           -2.2836    -9.1583    -0.1307 H       
  31 H31            2.1260     1.6231    -0.0088 H       
  32 H32           -0.0720     5.2780     0.0306 H       
  33 H33           -2.1875     4.0231     0.0448 H       
  34 H34           -2.1656     1.5646     0.0257 H       
@<TRIPOS>BOND
   1    1    2 1
   2    1   16 ar
   3    1   20 ar
   4    2    3 3
   5    3    4 1
   6    4    5 ar
   7    4    9 ar
   8    5    6 ar
   9    6    7 ar
  10    6   10 1
  11    7    8 ar
  12    7   13 1
  13    8    9 ar
  14    8   22 1
  15    9   23 1
  16   10   11 1
  17   10   24 1
  18   10   25 1
  19   11   12 1
  20   11   26 1
  21   11   27 1
  22   12   13 am
  23   12   15 1
  24   13   14 2
  25   15   28 1
  26   15   29 1
  27   15   30 1
  28   16   17 ar
  29   16   31 1
  30   17   18 ar
  31   17   21 1
  32   18   19 ar
  33   18   32 1
  34   19   20 ar
  35   19   33 1
  36   20   34 1

#	End of record

