#	Name: ASD01912106
#	Creating user name:	WinNT
#	Creation time:	15. 06. 2019 19:59

#	Modifying user name:	WinNT
#	Modification time:	15. 06. 2019 19:59

#	Program:	/corina/corina34_cracker 3.40 0067  02.08.2006

@<TRIPOS>MOLECULE
ASD01912106
  59   63    0    0    0
SMALL
NO_CHARGES


@<TRIPOS>ATOM
   1 C1            -0.0163     1.3544     0.0095 C.2     
   2 C2             0.0021    -0.0041     0.0020 C.2     
   3 N3             1.2910    -0.4003    -0.0124 N.2     
   4 C4             2.0641     0.6495    -0.0142 C.2     
   5 N5             1.2893     1.7658    -0.0008 N.pl3   
   6 C6             1.7431     3.0931     0.0013 C.ar    
   7 C7             1.2278     4.0052    -0.9095 C.ar    
   8 C8             1.6758     5.3116    -0.9060 C.ar    
   9 C9             2.6388     5.7118     0.0051 C.ar    
  10 C10            3.1544     4.8032     0.9142 C.ar    
  11 C11            2.7039     3.4976     0.9180 C.ar    
  12 C12           -1.1852    -0.8937     0.0086 C.ar    
  13 C13           -1.0218    -2.2775    -0.0004 C.ar    
  14 C14           -2.1295    -3.1009     0.0057 C.ar    
  15 C15           -3.4010    -2.5541     0.0207 C.ar    
  16 C16           -3.5686    -1.1797     0.0292 C.ar    
  17 C17           -2.4676    -0.3481     0.0295 C.ar    
  18 C18            3.5709     0.6284    -0.0282 C.3     
  19 C19            4.0600     0.6293    -1.4536 C.2     
  20 N20            5.3826     0.6122    -1.7122 N.am    
  21 O21            3.2635     0.6455    -2.3681 O.2     
  22 Cl22          -4.7902    -3.5951     0.0283 Cl      
  23 C23            5.8813     0.6127    -3.0959 C.3     
  24 C24            6.9190     1.7312    -3.2389 C.3     
  25 N25            7.9518     1.5715    -2.2064 N.3     
  26 C26            7.3842     1.7116    -0.8588 C.3     
  27 C27            6.3656     0.5986    -0.6183 C.3     
  28 C28            8.9959     2.4686    -2.4031 C.ar    
  29 F29            3.0762     6.9900     0.0068 F       
  30 C30           10.0823     2.4816    -1.5291 C.ar    
  31 C31           11.0969     3.3948    -1.7689 C.ar    
  32 C32           10.9695     4.2393    -2.8627 C.ar    
  33 N33            9.9063     4.1586    -3.6378 N.ar    
  34 N34            8.9658     3.3115    -3.4252 N.ar    
  35 C35           -1.9543    -4.5976    -0.0045 C.3     
  36 H36           -0.8915     1.9872     0.0173 H       
  37 H37            0.4773     3.6932    -1.6207 H       
  38 H38            1.2751     6.0214    -1.6145 H       
  39 H39            3.9056     5.1170     1.6238 H       
  40 H40            3.1062     2.7893     1.6271 H       
  41 H41           -0.0301    -2.7050    -0.0125 H       
  42 H42           -4.5628    -0.7580     0.0402 H       
  43 H43           -2.5994     0.7238     0.0362 H       
  44 H44            3.9514     1.5104     0.4871 H       
  45 H45            3.9264    -0.2694     0.4773 H       
  46 H46            6.3456    -0.3481    -3.3182 H       
  47 H47            5.0542     0.7906    -3.7832 H       
  48 H48            7.3794     1.6763    -4.2254 H       
  49 H49            6.4306     2.6981    -3.1183 H       
  50 H50            8.1818     1.6426    -0.1192 H       
  51 H51            6.8892     2.6789    -0.7713 H       
  52 H52            5.8596     0.7645     0.3328 H       
  53 H53            6.8737    -0.3656    -0.6026 H       
  54 H54           10.1314     1.8016    -0.6915 H       
  55 H55           11.9610     3.4480    -1.1232 H       
  56 H56           11.7415     4.9629    -3.0789 H       
  57 H57           -1.9020    -4.9643     1.0206 H       
  58 H58           -2.8009    -5.0591    -0.5128 H       
  59 H59           -1.0331    -4.8520    -0.5288 H       
@<TRIPOS>BOND
   1    1    2 2
   2    1    5 1
   3    1   36 1
   4    2    3 1
   5    2   12 1
   6    3    4 2
   7    4    5 1
   8    4   18 1
   9    5    6 1
  10    6    7 ar
  11    6   11 ar
  12    7    8 ar
  13    7   37 1
  14    8    9 ar
  15    8   38 1
  16    9   10 ar
  17    9   29 1
  18   10   11 ar
  19   10   39 1
  20   11   40 1
  21   12   13 ar
  22   12   17 ar
  23   13   14 ar
  24   13   41 1
  25   14   15 ar
  26   14   35 1
  27   15   16 ar
  28   15   22 1
  29   16   17 ar
  30   16   42 1
  31   17   43 1
  32   18   19 1
  33   18   44 1
  34   18   45 1
  35   19   20 am
  36   19   21 2
  37   20   23 1
  38   20   27 1
  39   23   24 1
  40   23   46 1
  41   23   47 1
  42   24   25 1
  43   24   48 1
  44   24   49 1
  45   25   26 1
  46   25   28 1
  47   26   27 1
  48   26   50 1
  49   26   51 1
  50   27   52 1
  51   27   53 1
  52   28   30 ar
  53   28   34 ar
  54   30   31 ar
  55   30   54 1
  56   31   32 ar
  57   31   55 1
  58   32   33 ar
  59   32   56 1
  60   33   34 ar
  61   35   57 1
  62   35   58 1
  63   35   59 1

#	End of record

