#	Name: ASD04882420
#	Creating user name:	WinNT
#	Creation time:	15. 06. 2019 20:54

#	Modifying user name:	WinNT
#	Modification time:	15. 06. 2019 20:54

#	Program:	/corina/corina34_cracker 3.40 0067  02.08.2006

@<TRIPOS>MOLECULE
ASD04882420
  77   81    0    0    0
SMALL
NO_CHARGES


@<TRIPOS>ATOM
   1 C1            -0.0215     1.4014    -0.0094 C.ar    
   2 C2            -0.0116     0.0037    -0.0051 C.ar    
   3 C3            -1.2095    -0.7018    -0.0170 C.ar    
   4 C4            -2.4097    -0.0266    -0.0329 C.ar    
   5 C5            -2.4268     1.3710    -0.0367 C.ar    
   6 C6            -1.2241     2.0828    -0.0191 C.ar    
   7 N7             1.1995    -0.6830     0.0105 N.3     
   8 C8             1.3060    -1.5360     1.2024 C.3     
   9 C9             1.3727    -1.4733    -1.2163 C.3     
  10 C10            2.7465    -2.1476    -1.1959 C.3     
  11 N11            2.8530    -3.0006    -0.0040 N.3     
  12 C12            2.6798    -2.2103     1.2228 C.3     
  13 C13           -3.7127     2.0940    -0.0538 C.2     
  14 O14           -3.7267     3.3098    -0.0571 O.2     
  15 N15           -4.8721     1.4067    -0.0656 N.am    
  16 N16            1.1861     2.1109     0.0021 N.am    
  17 C17            1.2291     3.3599     0.5068 C.2     
  18 O18            0.2063     3.8984     0.8853 O.2     
  19 C19            2.5153     4.0731     0.5999 C.2     
  20 N20            2.6966     5.3364     1.0891 N.pl3   
  21 C21            4.0247     5.6124     0.9968 C.2     
  22 C22            4.6214     4.5210     0.4578 C.2     
  23 N23            3.6872     3.6005     0.2316 N.2     
  24 C24            4.0679    -3.6895     0.0117 C.ar    
  25 C25            5.2665    -2.9869     0.0231 C.ar    
  26 C26            4.0805    -5.0783     0.0216 C.ar    
  27 C27            5.2838    -5.7564     0.0371 C.ar    
  28 C28            6.4748    -5.0541     0.0431 C.ar    
  29 C29            6.4658    -3.6711     0.0385 C.ar    
  30 C30            2.7829    -5.8445     0.0161 C.3     
  31 C31           -6.1490     2.1246    -0.0826 C.3     
  32 C32           -7.3004     1.1171    -0.0935 C.3     
  33 C33           -8.6340     1.8668    -0.1112 C.3     
  34 N34           -9.7364     0.9021    -0.1217 N.am    
  35 C35          -10.3206     0.4059     0.9826 C.2     
  36 C36          -10.3492     0.3580    -1.3392 C.3     
  37 C37          -11.1258    -0.8975    -0.8842 C.3     
  38 C38          -11.4129    -0.5684     0.6003 C.3     
  39 O39          -10.0158     0.6965     2.1200 O.2     
  40 C40            1.6565     6.2251     1.6133 C.3     
  41 H41           -1.1988    -1.7817    -0.0140 H       
  42 H42           -3.3386    -0.5775    -0.0428 H       
  43 H43           -1.2342     3.1627    -0.0216 H       
  44 H44            1.1869    -0.9261     2.0979 H       
  45 H45            0.5272    -2.2981     1.1749 H       
  46 H46            0.5947    -2.2347    -1.2713 H       
  47 H47            1.3023    -0.8177    -2.0842 H       
  48 H48            2.8656    -2.7576    -2.0914 H       
  49 H49            3.5253    -1.3855    -1.1684 H       
  50 H50            3.4578    -1.4489     1.2778 H       
  51 H51            2.7502    -2.8660     2.0907 H       
  52 H52           -4.8610     0.4368    -0.0630 H       
  53 H53            1.9914     1.7034    -0.3532 H       
  54 H54            4.5122     6.5284     1.2962 H       
  55 H55            5.6761     4.4150     0.2510 H       
  56 H56            5.2602    -1.9070     0.0195 H       
  57 H57            5.2943    -6.8363     0.0448 H       
  58 H58            7.4142    -5.5868     0.0559 H       
  59 H59            7.3979    -3.1256     0.0432 H       
  60 H60            2.4787    -6.0365    -1.0128 H       
  61 H61            2.9181    -6.7919     0.5378 H       
  62 H62            2.0132    -5.2593     0.5193 H       
  63 H63           -6.2244     2.7529     0.8050 H       
  64 H64           -6.2034     2.7482    -0.9749 H       
  65 H65           -7.2250     0.4888    -0.9810 H       
  66 H66           -7.2460     0.4934     0.7988 H       
  67 H67           -8.7094     2.4951     0.7763 H       
  68 H68           -8.6884     2.4905    -1.0035 H       
  69 H69          -11.0324     1.0866    -1.7756 H       
  70 H70           -9.5782     0.0842    -2.0595 H       
  71 H71          -12.0543    -1.0062    -1.4447 H       
  72 H72          -10.5095    -1.7919    -0.9758 H       
  73 H73          -11.3507    -1.4699     1.2098 H       
  74 H74          -12.3929    -0.1028     0.7052 H       
  75 H75            1.5437     6.0601     2.6848 H       
  76 H76            1.9401     7.2621     1.4332 H       
  77 H77            0.7119     6.0144     1.1118 H       
@<TRIPOS>BOND
   1    1    2 ar
   2    1   16 1
   3    1    6 ar
   4    2    3 ar
   5    2    7 1
   6    3    4 ar
   7    3   41 1
   8    4    5 ar
   9    4   42 1
  10    5    6 ar
  11    5   13 1
  12    6   43 1
  13    7    8 1
  14    7    9 1
  15    8   12 1
  16    8   44 1
  17    8   45 1
  18    9   10 1
  19    9   46 1
  20    9   47 1
  21   10   11 1
  22   10   48 1
  23   10   49 1
  24   11   12 1
  25   11   24 1
  26   12   50 1
  27   12   51 1
  28   13   14 2
  29   13   15 am
  30   15   31 1
  31   15   52 1
  32   16   17 am
  33   16   53 1
  34   17   18 2
  35   17   19 1
  36   19   20 1
  37   19   23 2
  38   20   21 1
  39   20   40 1
  40   21   22 2
  41   21   54 1
  42   22   23 1
  43   22   55 1
  44   24   25 ar
  45   24   26 ar
  46   25   29 ar
  47   25   56 1
  48   26   27 ar
  49   26   30 1
  50   27   28 ar
  51   27   57 1
  52   28   29 ar
  53   28   58 1
  54   29   59 1
  55   30   60 1
  56   30   61 1
  57   30   62 1
  58   31   32 1
  59   31   63 1
  60   31   64 1
  61   32   33 1
  62   32   65 1
  63   32   66 1
  64   33   34 1
  65   33   67 1
  66   33   68 1
  67   34   35 am
  68   34   36 1
  69   35   39 2
  70   35   38 1
  71   36   37 1
  72   36   69 1
  73   36   70 1
  74   37   38 1
  75   37   71 1
  76   37   72 1
  77   38   73 1
  78   38   74 1
  79   40   75 1
  80   40   76 1
  81   40   77 1

#	End of record

