#	Name: ASD02198317
#	Creating user name:	WinNT
#	Creation time:	15. 06. 2019 20:19

#	Modifying user name:	WinNT
#	Modification time:	15. 06. 2019 20:19

#	Program:	/corina/corina34_cracker 3.40 0067  02.08.2006

@<TRIPOS>MOLECULE
ASD02198317
  34   36    0    0    0
SMALL
NO_CHARGES


@<TRIPOS>ATOM
   1 C1             1.5939     1.1597    -2.5257 C.2     
   2 C2             1.1088    -0.1286    -2.3908 C.2     
   3 S3             2.0887     1.7153    -0.9288 S.3     
   4 C4             1.6175     0.2222    -0.2449 C.2     
   5 N5             1.1446    -0.5769    -1.1579 N.2     
   6 N6             0.6302    -0.8745    -3.4557 N.pl3   
   7 C7             1.6820     1.8924    -3.7238 C.2     
   8 C8             1.4743     3.3579    -3.7120 C.ar    
   9 O9             1.9294     1.3201    -4.7717 O.2     
  10 N10            1.7238    -0.0936     1.0908 N.pl3   
  11 C11            1.3124    -1.3521     1.5477 C.ar    
  12 C12            2.2398    -2.3770     1.6962 C.ar    
  13 C13            1.6998     4.1067    -4.8676 C.ar    
  14 C14            1.0467     3.9956    -2.5469 C.ar    
  15 C15            0.8550     5.3618    -2.5425 C.ar    
  16 C16            1.0859     6.0995    -3.6901 C.ar    
  17 C17            1.5045     5.4724    -4.8502 C.ar    
  18 C18            1.8295    -3.6185     2.1477 C.ar    
  19 C19            0.4988    -3.8409     2.4508 C.ar    
  20 C20           -0.4267    -2.8240     2.3045 C.ar    
  21 C21           -0.0233    -1.5779     1.8594 C.ar    
  22 F22           -0.9284    -0.5850     1.7168 F       
  23 F23            3.5400    -2.1609     1.3994 F       
  24 H24            0.6249    -0.4966    -4.3490 H       
  25 H25            0.3005    -1.7747    -3.3079 H       
  26 H26            2.0836     0.5554     1.7155 H       
  27 H27            2.0269     3.6184    -5.7737 H       
  28 H28            0.8658     3.4208    -1.6506 H       
  29 H29            0.5237     5.8566    -1.6415 H       
  30 H30            0.9344     7.1688    -3.6815 H       
  31 H31            1.6830     6.0537    -5.7427 H       
  32 H32            2.5494    -4.4152     2.2633 H       
  33 H33            0.1815    -4.8114     2.8025 H       
  34 H34           -1.4651    -3.0016     2.5423 H       
@<TRIPOS>BOND
   1    1    2 2
   2    1    3 1
   3    1    7 1
   4    2    6 1
   5    2    5 1
   6    3    4 1
   7    4    5 2
   8    4   10 1
   9    6   24 1
  10    6   25 1
  11    7    8 1
  12    7    9 2
  13    8   13 ar
  14    8   14 ar
  15   10   11 1
  16   10   26 1
  17   11   12 ar
  18   11   21 ar
  19   12   18 ar
  20   12   23 1
  21   13   17 ar
  22   13   27 1
  23   14   15 ar
  24   14   28 1
  25   15   16 ar
  26   15   29 1
  27   16   17 ar
  28   16   30 1
  29   17   31 1
  30   18   19 ar
  31   18   32 1
  32   19   20 ar
  33   19   33 1
  34   20   21 ar
  35   20   34 1
  36   21   22 1

#	End of record

