#	Name: ASD01870156
#	Creating user name:	WinNT
#	Creation time:	15. 06. 2019 19:38

#	Modifying user name:	WinNT
#	Modification time:	15. 06. 2019 19:38

#	Program:	/corina/corina34_cracker 3.40 0067  02.08.2006

@<TRIPOS>MOLECULE
ASD01870156
  30   31    0    0    0
SMALL
NO_CHARGES


@<TRIPOS>ATOM
   1 C1            -0.0105     1.3781    -0.1341 C.ar    
   2 C2             0.0075    -0.0026    -0.1417 C.ar    
   3 C3             1.2053    -0.6887    -0.0138 C.ar    
   4 C4             2.3911     0.0023     0.1228 C.ar    
   5 C5             2.3857     1.3993     0.1319 C.ar    
   6 C6             1.1726     2.0883     0.0019 C.ar    
   7 O7             1.1556     3.4456     0.0091 O.3     
   8 C8             3.6504     2.1449     0.2781 C.2     
   9 O9             3.6419     3.3608     0.2857 O.2     
  10 N10            4.8151     1.4784     0.4034 N.am    
  11 C11            6.0057     2.1804     0.5411 C.2     
  12 S12            6.1401     3.8846     0.5685 S.3     
  13 Cl13           1.2127    -2.4246    -0.0251 Cl      
  14 C14            1.3444     4.0639    -1.1681 C.2     
  15 O15            1.6092     3.4178    -2.1542 O.2     
  16 C16            1.2260     5.5634    -1.2591 C.3     
  17 N17            7.1761     1.6388     0.6730 N.2     
  18 C18            8.2037     2.4585     0.7924 C.2     
  19 C19            7.8863     3.7543     0.7619 C.2     
  20 N20            9.5954     1.9792     0.9504 N.pl3   
  21 O21            9.8289     0.7840     0.9739 O.2     
  22 O22           10.5070     2.7800     1.0570 O.2     
  23 H23           -0.9471     1.9057    -0.2387 H       
  24 H24           -0.9168    -0.5511    -0.2475 H       
  25 H25            3.3222    -0.5357     0.2229 H       
  26 H26            4.8219     0.5085     0.3974 H       
  27 H27            0.9841     5.9691    -0.2767 H       
  28 H28            2.1720     5.9824    -1.6022 H       
  29 H29            0.4365     5.8235    -1.9641 H       
  30 H30            8.5788     4.5791     0.8431 H       
@<TRIPOS>BOND
   1    1    2 ar
   2    1    6 ar
   3    1   23 1
   4    2    3 ar
   5    2   24 1
   6    3    4 ar
   7    3   13 1
   8    4    5 ar
   9    4   25 1
  10    5    6 ar
  11    5    8 1
  12    6    7 1
  13    7   14 1
  14    8    9 2
  15    8   10 am
  16   10   11 1
  17   10   26 1
  18   11   12 1
  19   11   17 2
  20   12   19 1
  21   14   15 2
  22   14   16 1
  23   16   27 1
  24   16   28 1
  25   16   29 1
  26   17   18 1
  27   18   19 2
  28   18   20 1
  29   19   30 1
  30   20   21 2
  31   20   22 2

#	End of record

