#	Name: ASD03730030
#	Creating user name:	WinNT
#	Creation time:	15. 06. 2019 20:43

#	Modifying user name:	WinNT
#	Modification time:	15. 06. 2019 20:43

#	Program:	/corina/corina34_cracker 3.40 0067  02.08.2006

@<TRIPOS>MOLECULE
ASD03730030
  44   47    0    0    0
SMALL
NO_CHARGES


@<TRIPOS>ATOM
   1 O1            -0.0175     1.4361     0.0099 O.3     
   2 C2             0.0021    -0.0041     0.0020 C.3     
   3 C3             1.3458    -0.3163    -0.6709 C.3     
   4 C4             2.1586     0.9229    -0.4087 C.ar    
   5 C5             1.2614     1.9062     0.0003 C.ar    
   6 C6             1.7493     3.1681     0.3264 C.ar    
   7 C7             3.1000     3.4384     0.2354 C.ar    
   8 C8             3.9811     2.4564    -0.1807 C.ar    
   9 C9             3.5051     1.1982    -0.5029 C.ar    
  10 N10            2.1588    -2.4047    -1.1214 N.am    
  11 C11            1.9847    -1.5477    -0.0956 C.2     
  12 C12            1.1883    -0.5973    -2.1356 C.ar    
  13 C13            0.6783     0.1222    -3.1933 C.ar    
  14 C14            0.6727    -0.4240    -4.4645 C.ar    
  15 C15            1.1799    -1.6941    -4.6705 C.ar    
  16 C16            1.6910    -2.4191    -3.6142 C.ar    
  17 C17            1.7018    -1.8769    -2.3313 C.ar    
  18 O18            2.2856    -1.7343     1.0645 O.2     
  19 C19            2.7576    -3.7346    -0.9834 C.3     
  20 C20            1.6608    -4.7596    -0.6881 C.3     
  21 C21            2.2861    -6.1485    -0.5440 C.3     
  22 C22            1.1893    -7.1735    -0.2486 C.3     
  23 C23            1.8147    -8.5624    -0.1045 C.3     
  24 Br24           3.7484     5.1581     0.6806 Br      
  25 H25           -0.0221    -0.3969     1.0185 H       
  26 H26           -0.8262    -0.3990    -0.5863 H       
  27 H27            1.0678     3.9399     0.6522 H       
  28 H28            5.0368     2.6717    -0.2548 H       
  29 H29            4.1908     0.4297    -0.8278 H       
  30 H30            0.2826     1.1138    -3.0305 H       
  31 H31            0.2728     0.1401    -5.2941 H       
  32 H32            1.1754    -2.1202    -5.6628 H       
  33 H33            2.0845    -3.4106    -3.7826 H       
  34 H34            3.2652    -4.0024    -1.9100 H       
  35 H35            3.4769    -3.7260    -0.1644 H       
  36 H36            1.1532    -4.4918     0.2386 H       
  37 H37            0.9415    -4.7682    -1.5070 H       
  38 H38            2.7938    -6.4163    -1.4706 H       
  39 H39            3.0054    -6.1399     0.2750 H       
  40 H40            0.6817    -6.9057     0.6780 H       
  41 H41            0.4700    -7.1821    -1.0676 H       
  42 H42            2.3223    -8.8302    -1.0312 H       
  43 H43            2.5340    -8.5538     0.7144 H       
  44 H44            1.0333    -9.2927     0.1059 H       
@<TRIPOS>BOND
   1    1    2 1
   2    1    5 1
   3    2    3 1
   4    2   25 1
   5    2   26 1
   6    3    4 1
   7    3   11 1
   8    3   12 1
   9    4    5 ar
  10    4    9 ar
  11    5    6 ar
  12    6    7 ar
  13    6   27 1
  14    7    8 ar
  15    7   24 1
  16    8    9 ar
  17    8   28 1
  18    9   29 1
  19   10   11 am
  20   10   17 1
  21   10   19 1
  22   11   18 2
  23   12   13 ar
  24   12   17 ar
  25   13   14 ar
  26   13   30 1
  27   14   15 ar
  28   14   31 1
  29   15   16 ar
  30   15   32 1
  31   16   17 ar
  32   16   33 1
  33   19   20 1
  34   19   34 1
  35   19   35 1
  36   20   21 1
  37   20   36 1
  38   20   37 1
  39   21   22 1
  40   21   38 1
  41   21   39 1
  42   22   23 1
  43   22   40 1
  44   22   41 1
  45   23   42 1
  46   23   43 1
  47   23   44 1

#	End of record

