#	Name: ASD08390038
#	Creating user name:	WinNT
#	Creation time:	15. 06. 2019 21:19

#	Modifying user name:	WinNT
#	Modification time:	15. 06. 2019 21:19

#	Program:	/corina/corina34_cracker 3.40 0067  02.08.2006

@<TRIPOS>MOLECULE
ASD08390038
  49   52    0    0    0
SMALL
NO_CHARGES


@<TRIPOS>ATOM
   1 C1            -0.2087     1.5212    -0.1712 C.3     
   2 C2            -0.0166     0.0673     0.3038 C.3     
   3 N3             1.1625     1.9595    -0.4812 N.pl3   
   4 C4             2.0162     0.9180    -0.2246 C.2     
   5 N5             1.4334    -0.1505     0.2090 N.2     
   6 C6             1.5483     3.2821    -0.9795 C.3     
   7 C7             1.7015     4.2311     0.1811 C.ar    
   8 C8             2.9478     4.4443     0.7397 C.ar    
   9 C9             3.0884     5.3148     1.8043 C.ar    
  10 C10            1.9826     5.9724     2.3100 C.ar    
  11 C11            0.7364     5.7599     1.7508 C.ar    
  12 C12            0.5966     4.8927     0.6834 C.ar    
  13 C13            3.4803     1.0096    -0.4273 C.ar    
  14 C14            4.3529     0.4687     0.5166 C.ar    
  15 C15            5.7162     0.5572     0.3221 C.ar    
  16 C16            6.2177     1.1813    -0.8061 C.ar    
  17 C17            5.3571     1.7200    -1.7457 C.ar    
  18 C18            3.9918     1.6319    -1.5657 C.ar    
  19 C19           -1.0734     1.5678    -1.4046 C.ar    
  20 C20           -2.4191     1.8896    -1.3161 C.ar    
  21 C21           -3.1807     1.9229    -2.4689 C.ar    
  22 N22           -2.6416     1.6528    -3.6416 N.ar    
  23 C23           -1.3656     1.3429    -3.7634 C.ar    
  24 C24           -0.5408     1.2955    -2.6554 C.ar    
  25 C25           -0.7540    -0.8857    -0.6013 C.2     
  26 O26           -1.8914    -1.2035    -0.3459 O.2     
  27 O27           -0.1472    -1.3815    -1.6911 O.3     
  28 C28           -0.4923    -0.0918     1.7492 C.3     
  29 H29           -0.6372     2.1320     0.6234 H       
  30 H30            2.4949     3.2068    -1.5147 H       
  31 H31            0.7779     3.6549    -1.6545 H       
  32 H32            3.8117     3.9305     0.3446 H       
  33 H33            4.0620     5.4808     2.2412 H       
  34 H34            2.0923     6.6519     3.1422 H       
  35 H35           -0.1276     6.2734     2.1462 H       
  36 H36           -0.3771     4.7266     0.2465 H       
  37 H37            3.9626    -0.0180     1.3981 H       
  38 H38            6.3930     0.1388     1.0523 H       
  39 H39            7.2855     1.2484    -0.9538 H       
  40 H40            5.7545     2.2063    -2.6243 H       
  41 H41            3.3209     2.0526    -2.3000 H       
  42 H42           -2.8666     2.1112    -0.3585 H       
  43 H43           -4.2297     2.1727    -2.4085 H       
  44 H44           -0.9596     1.1274    -4.7407 H       
  45 H45            0.5035     1.0414    -2.7616 H       
  46 H46           -0.6604    -1.9891    -2.2412 H       
  47 H47           -1.5496     0.1650     1.8142 H       
  48 H48           -0.3490    -1.1245     2.0673 H       
  49 H49            0.0829     0.5707     2.3960 H       
@<TRIPOS>BOND
   1    1    2 1
   2    1    3 1
   3    1   19 1
   4    1   29 1
   5    2   25 1
   6    2   28 1
   7    2    5 1
   8    3    4 1
   9    3    6 1
  10    4    5 2
  11    4   13 1
  12    6    7 1
  13    6   30 1
  14    6   31 1
  15    7    8 ar
  16    7   12 ar
  17    8    9 ar
  18    8   32 1
  19    9   10 ar
  20    9   33 1
  21   10   11 ar
  22   10   34 1
  23   11   12 ar
  24   11   35 1
  25   12   36 1
  26   13   14 ar
  27   13   18 ar
  28   14   15 ar
  29   14   37 1
  30   15   16 ar
  31   15   38 1
  32   16   17 ar
  33   16   39 1
  34   17   18 ar
  35   17   40 1
  36   18   41 1
  37   19   20 ar
  38   19   24 ar
  39   20   21 ar
  40   20   42 1
  41   21   22 ar
  42   21   43 1
  43   22   23 ar
  44   23   24 ar
  45   23   44 1
  46   24   45 1
  47   25   26 2
  48   25   27 1
  49   27   46 1
  50   28   47 1
  51   28   48 1
  52   28   49 1

#	End of record

