#	Name: ASD01900791
#	Creating user name:	WinNT
#	Creation time:	15. 06. 2019 19:52

#	Modifying user name:	WinNT
#	Modification time:	15. 06. 2019 19:52

#	Program:	/corina/corina34_cracker 3.40 0067  02.08.2006

@<TRIPOS>MOLECULE
ASD01900791
  26   28    0    0    0
SMALL
NO_CHARGES


@<TRIPOS>ATOM
   1 C1            -1.1931    -0.7167     0.0083 C.ar    
   2 N2             0.0021    -0.0041     0.0020 N.pl3   
   3 C3             1.2262    -0.6856     0.0926 C.2     
   4 C4            -2.4037    -0.0313     0.0312 C.ar    
   5 N5            -1.1674    -2.0401    -0.0131 N.ar    
   6 C6            -2.2772    -2.7545    -0.0085 C.ar    
   7 C7            -3.5150    -2.1398     0.0190 C.ar    
   8 C8            -3.5846    -0.7511     0.0368 C.ar    
   9 N9             1.2914    -1.9877     0.2828 N.2     
  10 C10            2.4805    -2.5160     0.3513 C.2     
  11 S11            3.6884    -1.2488     0.1568 S.3     
  12 C12            2.4041    -0.0541    -0.0143 C.2     
  13 C13            2.7699    -3.9515     0.5592 C.2     
  14 C14            4.0090    -4.5239     0.6338 C.2     
  15 C15            1.8180    -4.9793     0.7230 C.2     
  16 N16            2.4607    -6.1053     0.8813 N.2     
  17 N17            3.8354    -5.8459     0.8291 N.pl3   
  18 F18           -4.6451    -2.8802     0.0231 F       
  19 H19           -0.0105     0.9635    -0.0650 H       
  20 H20           -2.4210     1.0485     0.0448 H       
  21 H21           -2.2175    -3.8326    -0.0268 H       
  22 H22           -4.5391    -0.2462     0.0587 H       
  23 H23            2.5422     1.0052    -0.1730 H       
  24 H24            4.9552    -4.0100     0.5509 H       
  25 H25            0.7450    -4.8566     0.7187 H       
  26 H26            4.5418    -6.5048     0.9176 H       
@<TRIPOS>BOND
   1    1    2 1
   2    1    4 ar
   3    1    5 ar
   4    2    3 1
   5    2   19 1
   6    3    9 1
   7    3   12 2
   8    4    8 ar
   9    4   20 1
  10    5    6 ar
  11    6    7 ar
  12    6   21 1
  13    7    8 ar
  14    7   18 1
  15    8   22 1
  16    9   10 2
  17   10   11 1
  18   10   13 1
  19   11   12 1
  20   12   23 1
  21   13   14 2
  22   13   15 1
  23   14   17 1
  24   14   24 1
  25   15   16 2
  26   15   25 1
  27   16   17 1
  28   17   26 1

#	End of record

