#	Name: ASD03330125
#	Creating user name:	WinNT
#	Creation time:	15. 06. 2019 20:36

#	Modifying user name:	WinNT
#	Modification time:	15. 06. 2019 20:36

#	Program:	/corina/corina34_cracker 3.40 0067  02.08.2006

@<TRIPOS>MOLECULE
ASD03330125
  82   87    0    0    0
SMALL
NO_CHARGES


@<TRIPOS>ATOM
   1 N1             0.0915     1.4007    -0.8162 N.am    
   2 C2             0.4251    -0.0276    -0.7294 C.3     
   3 C3             0.7761    -0.5380    -2.1305 C.3     
   4 C4             1.8872     0.3322    -2.7225 C.3     
   5 C5             1.3965     1.7767    -2.8435 C.3     
   6 C6             1.0525     2.3133    -1.4505 C.3     
   7 C7             3.0947     0.2860    -1.8220 C.2     
   8 O8             3.5970     1.3171    -1.4277 O.2     
   9 N9             3.6165    -0.9012    -1.4548 N.am    
  10 C10            2.2589    -0.1879    -4.0872 C.ar    
  11 C11            3.1822     0.4930    -4.8584 C.ar    
  12 C12            3.5231     0.0160    -6.1103 C.ar    
  13 C13            2.9409    -1.1421    -6.5908 C.ar    
  14 C14            2.0183    -1.8234    -5.8192 C.ar    
  15 C15            1.6806    -1.3488    -4.5655 C.ar    
  16 C16           -1.0763     1.8640    -0.3283 C.2     
  17 O17           -1.9899     1.0924    -0.1012 O.2     
  18 C18           -1.2461     3.2966    -0.0712 C.2     
  19 C19           -2.4225     3.8960     0.2661 C.2     
  20 C20           -2.3399     5.2592     0.4600 C.2     
  21 C21           -1.0795     5.7815     0.2789 C.2     
  22 S22            0.0390     4.4933    -0.1451 S.3     
  23 C23           -3.5095     6.0911     0.8314 C.ar    
  24 C24           -4.6616     6.0668     0.0465 C.ar    
  25 C25           -5.7481     6.8416     0.3951 C.ar    
  26 C26           -5.6955     7.6449     1.5259 C.ar    
  27 C27           -4.5498     7.6718     2.3092 C.ar    
  28 C28           -3.4619     6.8951     1.9695 C.ar    
  29 O29           -6.7679     8.4072     1.8666 O.3     
  30 C30           -6.6458     9.2102     3.0423 C.3     
  31 C31           -7.9424     9.9918     3.2630 C.3     
  32 C32           -7.8117    10.8516     4.5218 C.3     
  33 N33           -9.0566    11.6020     4.7338 N.3     
  34 C34           -9.0614    12.2552     6.0556 C.3     
  35 C35           -9.2754    13.7650     5.8188 C.3     
  36 C36           -9.9465    13.8077     4.4207 C.3     
  37 C37           -9.2332    12.6395     3.6954 C.3     
  38 C38           -0.7205     7.2052     0.4243 C.ar    
  39 C39            0.3669     7.5776     1.2207 C.ar    
  40 C40            0.6971     8.9112     1.3516 C.ar    
  41 C41           -0.0460     9.8789     0.6964 C.ar    
  42 C42           -1.1244     9.5162    -0.0934 C.ar    
  43 C43           -1.4619     8.1867    -0.2375 C.ar    
  44 Cl44           0.3758    11.5543     0.8662 Cl      
  45 Cl45           1.2988     6.3655     2.0429 Cl      
  46 H46            1.2794    -0.1636    -0.0663 H       
  47 H47           -0.4315    -0.5801    -0.3432 H       
  48 H48            1.1182    -1.5709    -2.0663 H       
  49 H49           -0.1061    -0.4853    -2.7685 H       
  50 H50            2.1800     2.3912    -3.2868 H       
  51 H51            0.5084     1.8075    -3.4748 H       
  52 H52            0.6098     3.3054    -1.5402 H       
  53 H53            1.9579     2.3682    -0.8462 H       
  54 H54            3.2610    -1.7233    -1.8273 H       
  55 H55            4.3474    -0.9336    -0.8179 H       
  56 H56            3.6370     1.3978    -4.4830 H       
  57 H57            4.2439     0.5483    -6.7131 H       
  58 H58            3.2067    -1.5143    -7.5691 H       
  59 H59            1.5632    -2.7280    -6.1947 H       
  60 H60            0.9625    -1.8831    -3.9612 H       
  61 H61           -3.3465     3.3472     0.3728 H       
  62 H62           -4.7031     5.4422    -0.8336 H       
  63 H63           -6.6407     6.8234    -0.2127 H       
  64 H64           -4.5120     8.2982     3.1882 H       
  65 H65           -2.5725     6.9131     2.5819 H       
  66 H66           -6.4575     8.5683     3.9028 H       
  67 H67           -5.8171     9.9079     2.9213 H       
  68 H68           -8.1307    10.6338     2.4025 H       
  69 H69           -8.7711     9.2941     3.3841 H       
  70 H70           -7.6234    10.2096     5.3824 H       
  71 H71           -6.9830    11.5493     4.4008 H       
  72 H72           -9.8736    11.8564     6.6634 H       
  73 H73           -8.1064    12.0898     6.5544 H       
  74 H74           -9.9371    14.1840     6.5769 H       
  75 H75           -8.3213    14.2919     5.8046 H       
  76 H76          -11.0183    13.6242     4.4963 H       
  77 H77           -9.7486    14.7562     3.9214 H       
  78 H78           -8.2648    12.9639     3.3146 H       
  79 H79           -9.8541    12.2615     2.8831 H       
  80 H80            1.5364     9.2008     1.9665 H       
  81 H81           -1.7000    10.2761    -0.6009 H       
  82 H82           -2.3004     7.9055    -0.8574 H       
@<TRIPOS>BOND
   1    1    2 1
   2    1    6 1
   3    1   16 am
   4    2    3 1
   5    2   46 1
   6    2   47 1
   7    3    4 1
   8    3   48 1
   9    3   49 1
  10    4    5 1
  11    4    7 1
  12    4   10 1
  13    5    6 1
  14    5   50 1
  15    5   51 1
  16    6   52 1
  17    6   53 1
  18    7    8 2
  19    7    9 am
  20    9   54 1
  21    9   55 1
  22   10   11 ar
  23   10   15 ar
  24   11   12 ar
  25   11   56 1
  26   12   13 ar
  27   12   57 1
  28   13   14 ar
  29   13   58 1
  30   14   15 ar
  31   14   59 1
  32   15   60 1
  33   16   17 2
  34   16   18 1
  35   18   19 2
  36   18   22 1
  37   19   20 1
  38   19   61 1
  39   20   21 2
  40   20   23 1
  41   21   22 1
  42   21   38 1
  43   23   24 ar
  44   23   28 ar
  45   24   25 ar
  46   24   62 1
  47   25   26 ar
  48   25   63 1
  49   26   27 ar
  50   26   29 1
  51   27   28 ar
  52   27   64 1
  53   28   65 1
  54   29   30 1
  55   30   31 1
  56   30   66 1
  57   30   67 1
  58   31   32 1
  59   31   68 1
  60   31   69 1
  61   32   33 1
  62   32   70 1
  63   32   71 1
  64   33   34 1
  65   33   37 1
  66   34   35 1
  67   34   72 1
  68   34   73 1
  69   35   36 1
  70   35   74 1
  71   35   75 1
  72   36   37 1
  73   36   76 1
  74   36   77 1
  75   37   78 1
  76   37   79 1
  77   38   39 ar
  78   38   43 ar
  79   39   40 ar
  80   39   45 1
  81   40   41 ar
  82   40   80 1
  83   41   42 ar
  84   41   44 1
  85   42   43 ar
  86   42   81 1
  87   43   82 1

#	End of record

