#	Name: ASD01913461
#	Creating user name:	WinNT
#	Creation time:	15. 06. 2019 20:01

#	Modifying user name:	WinNT
#	Modification time:	15. 06. 2019 20:01

#	Program:	/corina/corina34_cracker 3.40 0067  02.08.2006

@<TRIPOS>MOLECULE
ASD01913461
  59   63    0    0    0
SMALL
NO_CHARGES


@<TRIPOS>ATOM
   1 C1             0.0902     1.4549     0.3151 C.ar    
   2 C2             0.0490    -0.0130     0.1344 C.2     
   3 N3            -1.0124    -0.8155     0.3819 N.pl3   
   4 N4            -0.6029    -2.1224     0.0717 N.2     
   5 C5             0.6460    -2.0459    -0.3348 C.2     
   6 N6             1.0364    -0.7669    -0.3007 N.2     
   7 C7             1.4842    -3.1921    -0.7661 C.ar    
   8 C8             2.7989    -2.9808    -1.1767 C.ar    
   9 C9             3.5748    -4.0494    -1.5765 C.ar    
  10 C10            3.0484    -5.3309    -1.5705 C.ar    
  11 C11            1.7415    -5.5454    -1.1635 C.ar    
  12 C12            0.9606    -4.4833    -0.7562 C.ar    
  13 C13           -2.3282    -0.4024     0.8761 C.3     
  14 C14           -3.2439    -0.1406    -0.2917 C.2     
  15 N15           -4.5146     0.2539    -0.0765 N.am    
  16 O16           -2.8375    -0.2848    -1.4253 O.2     
  17 F17            3.8114    -6.3744    -1.9632 F       
  18 C18           -5.0389     0.4382     1.2870 C.3     
  19 C19            1.3155     2.1114     0.4339 C.ar    
  20 C20           -1.0961     2.1879     0.3615 C.ar    
  21 C21           -1.0523     3.5561     0.5297 C.ar    
  22 C22            0.1672     4.2029     0.6525 C.ar    
  23 C23            1.3485     3.4799     0.6017 C.ar    
  24 F24            0.2048     5.5434     0.8166 F       
  25 C25           -6.1494    -0.5881     1.5054 C.3     
  26 C26           -7.1035    -0.6023     0.3401 C.ar    
  27 C27           -6.7748    -0.1041    -0.9010 C.ar    
  28 C28           -5.4294     0.5227    -1.1911 C.3     
  29 C29           -8.3639    -1.1478     0.5479 C.ar    
  30 C30           -9.2866    -1.1993    -0.4823 C.ar    
  31 C31           -8.9490    -0.7029    -1.7333 C.ar    
  32 C32           -7.6985    -0.1594    -1.9367 C.ar    
  33 C33           -5.5992     2.0326    -1.3706 C.3     
  34 O34          -10.5177    -1.7342    -0.2698 O.3     
  35 C35          -11.4172    -1.7533    -1.3800 C.3     
  36 H36            3.2098    -1.9821    -1.1823 H       
  37 H37            4.5939    -3.8865    -1.8948 H       
  38 H38            1.3348    -6.5459    -1.1610 H       
  39 H39           -0.0579    -4.6514    -0.4387 H       
  40 H40           -2.7481    -1.1940     1.4968 H       
  41 H41           -2.2249     0.5071     1.4679 H       
  42 H42           -4.2418     0.2794     2.0133 H       
  43 H43           -5.4413     1.4455     1.3943 H       
  44 H44            2.2366     1.5489     0.3948 H       
  45 H45           -2.0469     1.6849     0.2656 H       
  46 H46           -1.9700     4.1245     0.5654 H       
  47 H47            2.2964     3.9886     0.6979 H       
  48 H48           -5.7060    -1.5775     1.6178 H       
  49 H49           -6.6967    -0.3362     2.4137 H       
  50 H50           -5.0187     0.0934    -2.1050 H       
  51 H51           -8.6258    -1.5352     1.5214 H       
  52 H52           -9.6622    -0.7418    -2.5433 H       
  53 H53           -7.4349     0.2271    -2.9101 H       
  54 H54           -6.0116     2.4629    -0.4580 H       
  55 H55           -4.6298     2.4850    -1.5797 H       
  56 H56           -6.2772     2.2257    -2.2020 H       
  57 H57          -12.3611    -2.2051    -1.0751 H       
  58 H58          -11.5958    -0.7334    -1.7205 H       
  59 H59          -10.9808    -2.3360    -2.1912 H       
@<TRIPOS>BOND
   1    1    2 1
   2    1   19 ar
   3    1   20 ar
   4    2    3 1
   5    2    6 2
   6    3    4 1
   7    3   13 1
   8    4    5 2
   9    5    6 1
  10    5    7 1
  11    7    8 ar
  12    7   12 ar
  13    8    9 ar
  14    8   36 1
  15    9   10 ar
  16    9   37 1
  17   10   11 ar
  18   10   17 1
  19   11   12 ar
  20   11   38 1
  21   12   39 1
  22   13   14 1
  23   13   40 1
  24   13   41 1
  25   14   15 am
  26   14   16 2
  27   15   18 1
  28   15   28 1
  29   18   25 1
  30   18   42 1
  31   18   43 1
  32   19   23 ar
  33   19   44 1
  34   20   21 ar
  35   20   45 1
  36   21   22 ar
  37   21   46 1
  38   22   23 ar
  39   22   24 1
  40   23   47 1
  41   25   26 1
  42   25   48 1
  43   25   49 1
  44   26   27 ar
  45   26   29 ar
  46   27   28 1
  47   27   32 ar
  48   28   33 1
  49   28   50 1
  50   29   30 ar
  51   29   51 1
  52   30   31 ar
  53   30   34 1
  54   31   32 ar
  55   31   52 1
  56   32   53 1
  57   33   54 1
  58   33   55 1
  59   33   56 1
  60   34   35 1
  61   35   57 1
  62   35   58 1
  63   35   59 1

#	End of record

