#	Name: ASD01840058
#	Creating user name:	WinNT
#	Creation time:	15. 06. 2019 19:37

#	Modifying user name:	WinNT
#	Modification time:	15. 06. 2019 19:37

#	Program:	/corina/corina34_cracker 3.40 0067  02.08.2006

@<TRIPOS>MOLECULE
ASD01840058
  48   51    0    0    0
SMALL
NO_CHARGES


@<TRIPOS>ATOM
   1 C1            -0.0424     1.2979     0.0703 C.ar    
   2 N2             0.2523     0.4670     1.0592 N.ar    
   3 C3             1.3897    -0.2044     1.0723 C.ar    
   4 N4             2.2821    -0.0872     0.1164 N.ar    
   5 C5             0.8872     1.4620    -0.9884 C.ar    
   6 C6             0.8232     2.2911    -2.1772 C.2     
   7 C7             2.0748     0.7280    -0.9254 C.ar    
   8 S8             3.0657     1.0874    -2.3317 S.3     
   9 C9             1.8746     2.2057    -2.9688 C.2     
  10 C10           -0.3538     3.1807    -2.4841 C.3     
  11 C11            2.0325     2.9717    -4.2569 C.3     
  12 N12           -1.2401     1.9900     0.0675 N.3     
  13 C13           -2.3788     1.0708    -0.0537 C.3     
  14 C14           -3.6723     1.8755    -0.1998 C.3     
  15 C15           -3.8481     2.7768     1.0255 C.3     
  16 C16           -2.6266     3.6907     1.1565 C.3     
  17 C17           -1.3633     2.8334     1.2633 C.3     
  18 C18           -5.0891     3.6156     0.8598 C.2     
  19 O19           -5.7672     3.5044    -0.1397 O.2     
  20 N20           -5.4454     4.4893     1.8221 N.am    
  21 C21           -6.5438     5.3349     1.6279 C.ar    
  22 C22           -8.7304     5.7267     0.7231 C.ar    
  23 C23           -7.6469     4.8890     0.9133 C.ar    
  24 C24           -6.5345     6.6210     2.1551 C.ar    
  25 C25           -7.6203     7.4535     1.9617 C.ar    
  26 C26           -8.7158     7.0082     1.2448 C.ar    
  27 Cl27          -5.1602     7.1807     3.0562 Cl      
  28 Cl28         -10.1107     5.1699    -0.1705 Cl      
  29 H29            1.5925    -0.8717     1.8968 H       
  30 H30           -0.2315     4.1349    -1.9716 H       
  31 H31           -0.4104     3.3505    -3.5594 H       
  32 H32           -1.2710     2.7003    -2.1434 H       
  33 H33            2.5189     3.9260    -4.0549 H       
  34 H34            2.6416     2.3932    -4.9514 H       
  35 H35            1.0509     3.1501    -4.6962 H       
  36 H36           -2.2434     0.4385    -0.9311 H       
  37 H37           -2.4381     0.4466     0.8379 H       
  38 H38           -3.6193     2.4896    -1.0987 H       
  39 H39           -4.5190     1.1930    -0.2740 H       
  40 H40           -3.9402     2.1613     1.9203 H       
  41 H41           -2.5571     4.3334     0.2789 H       
  42 H42           -2.7261     4.3051     2.0513 H       
  43 H43           -1.4274     2.2009     2.1487 H       
  44 H44           -0.4904     3.4813     1.3424 H       
  45 H45           -4.9407     4.5322     2.6493 H       
  46 H46           -7.6589     3.8888     0.5059 H       
  47 H47           -7.6136     8.4529     2.3711 H       
  48 H48           -9.5631     7.6608     1.0946 H       
@<TRIPOS>BOND
   1    1    2 ar
   2    1    5 ar
   3    1   12 1
   4    2    3 ar
   5    3    4 ar
   6    3   29 1
   7    4    7 ar
   8    5    7 ar
   9    5    6 1
  10    6    9 2
  11    6   10 1
  12    7    8 1
  13    8    9 1
  14    9   11 1
  15   10   30 1
  16   10   31 1
  17   10   32 1
  18   11   33 1
  19   11   34 1
  20   11   35 1
  21   12   13 1
  22   12   17 1
  23   13   14 1
  24   13   36 1
  25   13   37 1
  26   14   15 1
  27   14   38 1
  28   14   39 1
  29   15   16 1
  30   15   18 1
  31   15   40 1
  32   16   17 1
  33   16   41 1
  34   16   42 1
  35   17   43 1
  36   17   44 1
  37   18   19 2
  38   18   20 am
  39   20   21 1
  40   20   45 1
  41   21   24 ar
  42   21   23 ar
  43   22   23 ar
  44   22   26 ar
  45   22   28 1
  46   23   46 1
  47   24   25 ar
  48   24   27 1
  49   25   26 ar
  50   25   47 1
  51   26   48 1

#	End of record

