#	Name: ASD03731256
#	Creating user name:	WinNT
#	Creation time:	15. 06. 2019 20:45

#	Modifying user name:	WinNT
#	Modification time:	15. 06. 2019 20:45

#	Program:	/corina/corina34_cracker 3.40 0067  02.08.2006

@<TRIPOS>MOLECULE
ASD03731256
  54   59    0    0    0
SMALL
NO_CHARGES


@<TRIPOS>ATOM
   1 N1            -0.0162     1.3436     0.0094 N.am    
   2 C2             0.1094     0.0017     0.0199 C.2     
   3 O3             1.2101    -0.5066    -0.0712 O.2     
   4 N4            -0.9852    -0.7767     0.1312 N.am    
   5 C5            -0.8487    -2.2353     0.1426 C.3     
   6 C6            -2.2316    -2.8759     0.2777 C.3     
   7 O7             3.1204    -7.3509     2.0160 O.3     
   8 C8             3.6682    -8.6650     2.2312 C.3     
   9 O9             2.5921    -9.3856     2.8602 O.3     
  10 C10            1.4458    -8.7835     2.4263 C.ar    
  11 C11            1.7712    -7.5320     1.9083 C.ar    
  12 C12            0.1296    -9.2094     2.4307 C.ar    
  13 C13           -0.8769    -8.3943     1.9215 C.ar    
  14 C14           -0.5405    -7.1429     1.4143 C.ar    
  15 C15            0.7716    -6.7178     1.4029 C.ar    
  16 O16           -2.2168    -8.6261     1.8164 O.3     
  17 C17           -1.8275    -6.4992     0.9724 C.3     
  18 C18           -2.9029    -7.3727     1.6328 C.3     
  19 N19           -2.0951    -4.3345     0.2891 N.am    
  20 C20           -1.9250    -5.0657     1.4087 C.2     
  21 C21           -1.9687    -6.4711    -0.5206 C.ar    
  22 C22           -1.9670    -7.4442    -1.4949 C.ar    
  23 C23           -2.1247    -7.0942    -2.8241 C.ar    
  24 C24           -2.2831    -5.7650    -3.1718 C.ar    
  25 C25           -2.2845    -4.7865    -2.1996 C.ar    
  26 C26           -2.1269    -5.1296    -0.8591 C.ar    
  27 O27           -1.8631    -4.6477     2.5456 O.2     
  28 C28            1.1255     2.1532    -0.0215 C.ar    
  29 C29            1.0775     3.4443     0.4902 C.ar    
  30 C30            2.2075     4.2410     0.4582 C.ar    
  31 C31            3.3842     3.7528    -0.0831 C.ar    
  32 C32            3.4334     2.4687    -0.5925 C.ar    
  33 C33            2.3094     1.6660    -0.5582 C.ar    
  34 Cl34           2.1501     5.8542     1.0969 Cl      
  35 Cl35          -0.3988     4.0565     1.1680 Cl      
  36 H36           -0.8977     1.7483     0.0193 H       
  37 H37           -1.8634    -0.3712     0.2039 H       
  38 H38           -0.3853    -2.5641    -0.7876 H       
  39 H39           -0.2254    -2.5354     0.9849 H       
  40 H40           -2.6950    -2.5471     1.2079 H       
  41 H41           -2.8549    -2.5759    -0.5646 H       
  42 H42            3.9358    -9.1284     1.2816 H       
  43 H43            4.5337    -8.6156     2.8918 H       
  44 H44           -0.1184   -10.1809     2.8319 H       
  45 H45            1.0199    -5.7474     0.9991 H       
  46 H46           -3.7618    -7.4945     0.9729 H       
  47 H47           -3.2067    -6.9535     2.5921 H       
  48 H48           -1.8430    -8.4815    -1.2211 H       
  49 H49           -2.1244    -7.8573    -3.5884 H       
  50 H50           -2.4061    -5.4918    -4.2094 H       
  51 H51           -2.4082    -3.7506    -2.4790 H       
  52 H52            4.2655     4.3765    -0.1079 H       
  53 H53            4.3531     2.0908    -1.0142 H       
  54 H54            2.3506     0.6614    -0.9525 H       
@<TRIPOS>BOND
   1    1    2 am
   2    1   28 1
   3    1   36 1
   4    2    3 2
   5    2    4 am
   6    4    5 1
   7    4   37 1
   8    5    6 1
   9    5   38 1
  10    5   39 1
  11    6   19 1
  12    6   40 1
  13    6   41 1
  14    7    8 1
  15    7   11 1
  16    8    9 1
  17    8   42 1
  18    8   43 1
  19    9   10 1
  20   10   11 ar
  21   10   12 ar
  22   11   15 ar
  23   12   13 ar
  24   12   44 1
  25   13   14 ar
  26   13   16 1
  27   14   15 ar
  28   14   17 1
  29   15   45 1
  30   16   18 1
  31   17   18 1
  32   17   20 1
  33   17   21 1
  34   18   46 1
  35   18   47 1
  36   19   20 am
  37   19   26 1
  38   20   27 2
  39   21   22 ar
  40   21   26 ar
  41   22   23 ar
  42   22   48 1
  43   23   24 ar
  44   23   49 1
  45   24   25 ar
  46   24   50 1
  47   25   26 ar
  48   25   51 1
  49   28   29 ar
  50   28   33 ar
  51   29   30 ar
  52   29   35 1
  53   30   31 ar
  54   30   34 1
  55   31   32 ar
  56   31   52 1
  57   32   33 ar
  58   32   53 1
  59   33   54 1

#	End of record

