#	Name: ASD03330335
#	Creating user name:	WinNT
#	Creation time:	15. 06. 2019 20:37

#	Modifying user name:	WinNT
#	Modification time:	15. 06. 2019 20:37

#	Program:	/corina/corina34_cracker 3.40 0067  02.08.2006

@<TRIPOS>MOLECULE
ASD03330335
  72   76    0    0    0
SMALL
NO_CHARGES


@<TRIPOS>ATOM
   1 C1             0.3555     1.1450     0.0032 C.3     
   2 N2             0.1001    -0.2794    -0.2598 N.am    
   3 C3             0.7881    -0.9068    -1.4042 C.3     
   4 C4             2.2151    -0.4163    -1.3820 C.2     
   5 N5             2.6608     0.5913    -0.5902 N.pl3   
   6 C6             1.8335     1.3367     0.3614 C.3     
   7 C7             3.2718    -0.8606    -2.1088 C.2     
   8 N8             4.3481    -0.1196    -1.7611 N.2     
   9 C9             3.9880     0.7558    -0.8509 C.2     
  10 C10            4.8753     1.7547    -0.2151 C.ar    
  11 C11            6.1213     2.0409    -0.7736 C.ar    
  12 C12            3.2503    -1.9534    -3.0973 C.2     
  13 O13            2.2140    -2.5486    -3.3232 O.2     
  14 C14            4.3574    -3.3797    -4.7335 C.3     
  15 N15            4.3789    -2.2933    -3.7508 N.am    
  16 C16           -0.7370    -0.9903     0.5215 C.2     
  17 O17           -1.0087    -2.1366     0.2334 O.2     
  18 C18            6.9439     2.9738    -0.1762 C.ar    
  19 C19            6.5354     3.6247     0.9742 C.ar    
  20 C20            5.3010     3.3453     1.5329 C.ar    
  21 C21            4.4669     2.4184     0.9421 C.ar    
  22 C22            5.5056    -3.1957    -5.7723 C.3     
  23 C23            4.8958    -4.5300    -2.5503 C.3     
  24 C24            4.6627    -4.7316    -4.0489 C.3     
  25 C25           -1.3353    -0.3607     1.7531 C.3     
  26 C26            3.5165    -5.7180    -4.2814 C.3     
  27 C27            5.2159    -4.2666    -6.8680 C.3     
  28 C28            5.5212    -5.6186    -6.1834 C.3     
  29 C29            5.9666    -5.2371    -4.7386 C.3     
  30 C30            6.6977    -3.8752    -5.0105 C.3     
  31 C31            5.7303    -1.7682    -6.2751 C.3     
  32 C32           -2.1603    -1.4038     2.5096 C.3     
  33 C33           -0.2147     0.1567     2.6571 C.3     
  34 C34           -2.2385     0.8041     1.3428 C.3     
  35 H35            0.1183     1.7276    -0.8870 H       
  36 H36           -0.2665     1.4789     0.8336 H       
  37 H37            0.7660    -1.9918    -1.3024 H       
  38 H38            0.3070    -0.6096    -2.3361 H       
  39 H39            2.0858     2.3959     0.3115 H       
  40 H40            2.0147     0.9656     1.3701 H       
  41 H41            6.4414     1.5332    -1.6714 H       
  42 H42            3.3915    -3.4163    -5.2372 H       
  43 H43            5.2054    -1.8186    -3.5706 H       
  44 H44            7.9088     3.1960    -0.6073 H       
  45 H45            7.1830     4.3538     1.4383 H       
  46 H46            4.9877     3.8568     2.4310 H       
  47 H47            3.5035     2.2011     1.3792 H       
  48 H48            4.0031    -4.0971    -2.0987 H       
  49 H49            5.1094    -5.4914    -2.0832 H       
  50 H50            5.7408    -3.8578    -2.4012 H       
  51 H51            2.6435    -5.4016    -3.7105 H       
  52 H52            3.2675    -5.7423    -5.3423 H       
  53 H53            3.8218    -6.7128    -3.9569 H       
  54 H54            4.1709    -4.2234    -7.1747 H       
  55 H55            5.8712    -4.1189    -7.7264 H       
  56 H56            4.6262    -6.2400    -6.1536 H       
  57 H57            6.3266    -6.1354    -6.7053 H       
  58 H58            6.5281    -5.9981    -4.1966 H       
  59 H59            7.5722    -4.0010    -5.6489 H       
  60 H60            6.9438    -3.3518    -4.0866 H       
  61 H61            5.9763    -1.1210    -5.4333 H       
  62 H62            6.5516    -1.7605    -6.9916 H       
  63 H63            4.8229    -1.4063    -6.7586 H       
  64 H64           -1.5168    -2.2337     2.8018 H       
  65 H65           -2.5931    -0.9485     3.4003 H       
  66 H66           -2.9587    -1.7724     1.8655 H       
  67 H67            0.2855     0.9950     2.1722 H       
  68 H68           -0.6366     0.4854     3.6069 H       
  69 H69            0.5054    -0.6417     2.8363 H       
  70 H70           -3.1562     0.4146     0.9022 H       
  71 H71           -2.4824     1.4016     2.2213 H       
  72 H72           -1.7204     1.4260     0.6128 H       
@<TRIPOS>BOND
   1    1    2 1
   2    1    6 1
   3    1   35 1
   4    1   36 1
   5    2    3 1
   6    2   16 am
   7    3    4 1
   8    3   37 1
   9    3   38 1
  10    4    5 1
  11    4    7 2
  12    5    6 1
  13    5    9 1
  14    6   39 1
  15    6   40 1
  16    7    8 1
  17    7   12 1
  18    8    9 2
  19    9   10 1
  20   10   11 ar
  21   10   21 ar
  22   11   18 ar
  23   11   41 1
  24   12   13 2
  25   12   15 am
  26   14   22 1
  27   14   15 1
  28   14   24 1
  29   14   42 1
  30   15   43 1
  31   16   17 2
  32   16   25 1
  33   18   19 ar
  34   18   44 1
  35   19   20 ar
  36   19   45 1
  37   20   21 ar
  38   20   46 1
  39   21   47 1
  40   22   27 1
  41   22   31 1
  42   22   30 1
  43   23   24 1
  44   23   48 1
  45   23   49 1
  46   23   50 1
  47   24   26 1
  48   24   29 1
  49   25   32 1
  50   25   34 1
  51   25   33 1
  52   26   51 1
  53   26   52 1
  54   26   53 1
  55   27   28 1
  56   27   54 1
  57   27   55 1
  58   28   29 1
  59   28   56 1
  60   28   57 1
  61   29   30 1
  62   29   58 1
  63   30   59 1
  64   30   60 1
  65   31   61 1
  66   31   62 1
  67   31   63 1
  68   32   64 1
  69   32   65 1
  70   32   66 1
  71   33   67 1
  72   33   68 1
  73   33   69 1
  74   34   70 1
  75   34   71 1
  76   34   72 1

#	End of record

