#	Name: ASD01881747
#	Creating user name:	WinNT
#	Creation time:	15. 06. 2019 19:43

#	Modifying user name:	WinNT
#	Modification time:	15. 06. 2019 19:43

#	Program:	/corina/corina34_cracker 3.40 0067  02.08.2006

@<TRIPOS>MOLECULE
ASD01881747
  43   45    0    0    0
SMALL
NO_CHARGES


@<TRIPOS>ATOM
   1 C1            -0.0184     1.5028     0.0103 C.2     
   2 C2             0.0021    -0.0041     0.0020 C.3     
   3 C3             1.4513    -0.4944    -0.0145 C.3     
   4 C4             1.4726    -2.0183    -0.1486 C.3     
   5 O5             1.0197     2.1211     0.0037 O.2     
   6 O6            -1.1898     2.1580     0.0194 O.3     
   7 C7            -0.7002    -0.5305     1.2552 C.3     
   8 O8             2.8261    -2.4763    -0.1640 O.3     
   9 N9             3.8921    -7.8301    -0.6163 N.pl3   
  10 N10            5.2895    -7.7129    -0.5807 N.2     
  11 N11            5.6124    -6.4731    -0.4659 N.2     
  12 C12            4.5068    -5.7034    -0.4181 C.ar    
  13 C13            3.3906    -6.5526    -0.5130 C.ar    
  14 C14            4.3070    -4.3212    -0.2994 C.ar    
  15 C15            3.0231    -3.8169    -0.2786 C.ar    
  16 C16            1.9270    -4.6710    -0.3738 C.ar    
  17 C17            2.1063    -6.0208    -0.4887 C.ar    
  18 C18            3.1190    -9.0678    -0.7445 C.3     
  19 C19            2.8239    -9.6314     0.6470 C.3     
  20 C20            1.9227   -10.8647     0.7332 C.3     
  21 C21            3.4238   -10.9941     0.9990 C.3     
  22 Br22           5.7891    -3.1540    -0.1694 Br      
  23 C23           -1.1335     3.6089     0.0270 C.3     
  24 H24           -0.5153    -0.3696    -0.8850 H       
  25 H25            1.9763    -0.0479    -0.8589 H       
  26 H26            1.9435    -0.2044     0.9138 H       
  27 H27            0.9476    -2.4648     0.6959 H       
  28 H28            0.9804    -2.3083    -1.0769 H       
  29 H29           -0.1829    -0.1650     2.1423 H       
  30 H30           -1.7327    -0.1812     1.2669 H       
  31 H31           -0.6854    -1.6204     1.2492 H       
  32 H32            0.9271    -4.2632    -0.3560 H       
  33 H33            1.2499    -6.6747    -0.5616 H       
  34 H34            2.1807    -8.8586    -1.2582 H       
  35 H35            3.6922    -9.7966    -1.3176 H       
  36 H36            2.7457    -8.8940     1.4459 H       
  37 H37            1.2517   -10.9390     1.5890 H       
  38 H38            1.5399   -11.2747    -0.2015 H       
  39 H39            4.0287   -11.4892     0.2393 H       
  40 H40            3.7405   -11.1535     2.0298 H       
  41 H41           -0.6017     3.9472     0.9164 H       
  42 H42           -0.6102     3.9569    -0.8636 H       
  43 H43           -2.1463     4.0118     0.0340 H       
@<TRIPOS>BOND
   1    1    2 1
   2    1    5 2
   3    1    6 1
   4    2    3 1
   5    2    7 1
   6    2   24 1
   7    3    4 1
   8    3   25 1
   9    3   26 1
  10    4    8 1
  11    4   27 1
  12    4   28 1
  13    6   23 1
  14    7   29 1
  15    7   30 1
  16    7   31 1
  17    8   15 1
  18    9   10 1
  19    9   13 1
  20    9   18 1
  21   10   11 2
  22   11   12 1
  23   12   13 ar
  24   12   14 ar
  25   13   17 ar
  26   14   15 ar
  27   14   22 1
  28   15   16 ar
  29   16   17 ar
  30   16   32 1
  31   17   33 1
  32   18   19 1
  33   18   34 1
  34   18   35 1
  35   19   20 1
  36   19   21 1
  37   19   36 1
  38   20   21 1
  39   20   37 1
  40   20   38 1
  41   21   39 1
  42   21   40 1
  43   23   41 1
  44   23   42 1
  45   23   43 1

#	End of record

