#	Name: ASD08150568
#	Creating user name:	WinNT
#	Creation time:	15. 06. 2019 21:16

#	Modifying user name:	WinNT
#	Modification time:	15. 06. 2019 21:16

#	Program:	/corina/corina34_cracker 3.40 0067  02.08.2006

@<TRIPOS>MOLECULE
ASD08150568
  47   51    0    0    0
SMALL
NO_CHARGES


@<TRIPOS>ATOM
   1 N1             0.4486     2.0784     1.7233 N.am    
   2 C2             0.7056     1.1125     2.6265 C.2     
   3 C3             1.9193     0.3961     2.5944 C.2     
   4 C4             2.8507     0.6725     1.6465 C.2     
   5 C5             2.5834     1.6878     0.6944 C.ar    
   6 C6             3.5152     2.0136    -0.3098 C.ar    
   7 N7             3.2659     2.9503    -1.1871 N.ar    
   8 C8             2.1210     3.6499    -1.1842 C.ar    
   9 C9             1.1262     3.3894    -0.2098 C.ar    
  10 C10            1.3653     2.3821     0.7543 C.ar    
  11 C11           -0.2562     5.1029    -1.1771 C.ar    
  12 C12            0.7331     5.3553    -2.1379 C.ar    
  13 C13            1.8949     4.6484    -2.1457 C.ar    
  14 O14           -0.1224     0.8546     3.4834 O.2     
  15 C15           -0.7670     2.7720     1.7732 C.ar    
  16 C16           -1.8868     2.2593     1.1320 C.ar    
  17 C17           -3.0849     2.9447     1.1828 C.ar    
  18 C18           -3.1696     4.1426     1.8721 C.ar    
  19 C19           -2.0536     4.6560     2.5120 C.ar    
  20 C20           -0.8556     3.9709     2.4689 C.ar    
  21 C21           -0.0633     4.1245    -0.2153 C.ar    
  22 C22           -1.5147     5.8876    -1.1898 C.ar    
  23 C23           -2.7255     5.2845    -0.8621 C.ar    
  24 F24           -4.3423     4.8117     1.9202 F       
  25 N25           -3.8467     5.9776    -0.8719 N.ar    
  26 C26           -3.8685     7.2631    -1.1899 C.ar    
  27 C27           -2.6969     7.9350    -1.5286 C.ar    
  28 C28           -1.5003     7.2466    -1.5259 C.ar    
  29 N29           -5.0761     7.9499    -1.1860 N.pl3   
  30 C30           -4.3006     2.3886     0.4871 C.3     
  31 F31           -3.9697     1.1802    -0.1354 F       
  32 F32           -5.3145     2.1676     1.4253 F       
  33 F33           -4.7461     3.3019    -0.4745 F       
  34 H34            2.1088    -0.3748     3.3266 H       
  35 H35            3.7823     0.1268     1.6184 H       
  36 H36            4.4531     1.4801    -0.3559 H       
  37 H37            0.5703     6.1210    -2.8819 H       
  38 H38            2.6462     4.8558    -2.8934 H       
  39 H39           -1.8210     1.3253     0.5936 H       
  40 H40           -2.1216     5.5909     3.0485 H       
  41 H41            0.0143     4.3716     2.9680 H       
  42 H42           -0.8260     3.9308     0.5244 H       
  43 H43           -2.7468     4.2376    -0.5974 H       
  44 H44           -2.7235     8.9834    -1.7866 H       
  45 H45           -0.5763     7.7427    -1.7840 H       
  46 H46           -5.8961     7.4879    -0.9514 H       
  47 H47           -5.0993     8.8915    -1.4179 H       
@<TRIPOS>BOND
   1    1    2 am
   2    1   10 1
   3    1   15 1
   4    2    3 1
   5    2   14 2
   6    3    4 2
   7    3   34 1
   8    4    5 1
   9    4   35 1
  10    5    6 ar
  11    5   10 ar
  12    6    7 ar
  13    6   36 1
  14    7    8 ar
  15    8    9 ar
  16    8   13 ar
  17    9   10 ar
  18    9   21 ar
  19   11   12 ar
  20   11   22 1
  21   11   21 ar
  22   12   13 ar
  23   12   37 1
  24   13   38 1
  25   15   16 ar
  26   15   20 ar
  27   16   17 ar
  28   16   39 1
  29   17   18 ar
  30   17   30 1
  31   18   19 ar
  32   18   24 1
  33   19   20 ar
  34   19   40 1
  35   20   41 1
  36   21   42 1
  37   22   23 ar
  38   22   28 ar
  39   23   25 ar
  40   23   43 1
  41   25   26 ar
  42   26   27 ar
  43   26   29 1
  44   27   28 ar
  45   27   44 1
  46   28   45 1
  47   29   46 1
  48   29   47 1
  49   30   31 1
  50   30   32 1
  51   30   33 1

#	End of record

