#	Name: ASD05940131
#	Creating user name:	WinNT
#	Creation time:	15. 06. 2019 21:04

#	Modifying user name:	WinNT
#	Modification time:	15. 06. 2019 21:04

#	Program:	/corina/corina34_cracker 3.40 0067  02.08.2006

@<TRIPOS>MOLECULE
ASD05940131
  77   80    0    0    0
SMALL
NO_CHARGES


@<TRIPOS>ATOM
   1 C1             0.0191     1.4968     0.3028 C.3     
   2 C2             0.0018    -0.0033     0.0024 C.3     
   3 N3            -1.3697    -0.5131     0.1331 N.3     
   4 C4            -2.1811    -0.1467    -1.0354 C.3     
   5 C5            -1.3731    -1.9673     0.3413 C.3     
   6 C6            -2.7621    -2.4181     0.7138 C.2     
   7 C7            -3.7630    -2.8207    -0.1765 C.2     
   8 C8            -3.6392    -2.8799    -1.6772 C.3     
   9 C9            -3.2594    -2.5104     1.9688 C.2     
  10 N10           -4.5318    -2.9501     1.8757 N.pl3   
  11 N11           -4.8250    -3.1378     0.5188 N.2     
  12 C12           -2.5238    -2.1818     3.2424 C.3     
  13 C13            1.4650     1.9966     0.3217 C.3     
  14 O14            1.4892     3.3699     0.7161 O.3     
  15 C15            2.7070     3.9712     0.7842 C.ar    
  16 C16            2.8028     5.3028     1.1604 C.ar    
  17 C17            4.0397     5.9136     1.2295 C.ar    
  18 C18            5.1860     5.1953     0.9232 C.ar    
  19 C19            5.0903     3.8635     0.5480 C.ar    
  20 C20            3.8537     3.2515     0.4830 C.ar    
  21 C21           -5.4441    -3.1923     2.9961 C.3     
  22 C22           -6.2148    -1.9329     3.2976 C.ar    
  23 C23           -7.4219    -1.6937     2.6677 C.ar    
  24 C24           -8.1288    -0.5384     2.9443 C.ar    
  25 C25           -7.6289     0.3775     3.8511 C.ar    
  26 C26           -6.4224     0.1378     4.4816 C.ar    
  27 C27           -5.7175    -1.0195     4.2083 C.ar    
  28 O28           -0.7124     2.1934    -0.7081 O.3     
  29 C29           -1.3382     3.3936    -0.2498 C.3     
  30 C30           -2.0773     4.0423    -1.3917 C.ar    
  31 C31           -3.3997     3.7188    -1.6318 C.ar    
  32 C32           -4.0776     4.3139    -2.6792 C.ar    
  33 C33           -3.4333     5.2328    -3.4864 C.ar    
  34 C34           -2.1113     5.5570    -3.2457 C.ar    
  35 C35           -1.4346     4.9651    -2.1956 C.ar    
  36 O36            6.4037     5.7970     0.9904 O.3     
  37 C37            8.8119     5.8395     0.7933 C.3     
  38 C38            7.5414     4.9973     0.6615 C.3     
  39 H39           -0.4408     1.6782     1.2742 H       
  40 H40            0.3579    -0.1746    -1.0134 H       
  41 H41            0.6511    -0.5225     0.7074 H       
  42 H42           -1.6887    -0.4950    -1.9433 H       
  43 H43           -3.1644    -0.6101    -0.9546 H       
  44 H44           -2.2922     0.9369    -1.0752 H       
  45 H45           -1.0630    -2.4665    -0.5766 H       
  46 H46           -0.6812    -2.2210     1.1445 H       
  47 H47           -3.2774    -3.8646    -1.9734 H       
  48 H48           -4.6144    -2.7000    -2.1296 H       
  49 H49           -2.9362    -2.1181    -2.0141 H       
  50 H50           -2.6771    -1.1314     3.4899 H       
  51 H51           -2.9032    -2.8050     4.0522 H       
  52 H52           -1.4591    -2.3714     3.1063 H       
  53 H53            2.0447     1.4048     1.0302 H       
  54 H54            1.8970     1.8969    -0.6740 H       
  55 H55            1.9102     5.8621     1.3989 H       
  56 H56            4.1143     6.9507     1.5217 H       
  57 H57            5.9828     3.3042     0.3095 H       
  58 H58            3.7791     2.2144     0.1908 H       
  59 H59           -6.1394    -3.9894     2.7328 H       
  60 H60           -4.8703    -3.4863     3.8750 H       
  61 H61           -7.8124    -2.4092     1.9593 H       
  62 H62           -9.0715    -0.3512     2.4516 H       
  63 H63           -8.1809     1.2804     4.0666 H       
  64 H64           -6.0317     0.8535     5.1898 H       
  65 H65           -4.7749    -1.2068     4.7010 H       
  66 H66           -2.0407     3.1550     0.5488 H       
  67 H67           -0.5786     4.0784     0.1271 H       
  68 H68           -3.9030     3.0009    -1.0012 H       
  69 H69           -5.1105     4.0606    -2.8673 H       
  70 H70           -3.9628     5.6971    -4.3052 H       
  71 H71           -1.6078     6.2746    -3.8765 H       
  72 H72           -0.4028     5.2212    -2.0053 H       
  73 H73            9.6798     5.2296     0.5424 H       
  74 H74            8.7565     6.6896     0.1133 H       
  75 H75            8.9047     6.1993     1.8180 H       
  76 H76            7.5968     4.1472     1.3414 H       
  77 H77            7.4486     4.6376    -0.3632 H       
@<TRIPOS>BOND
   1    1    2 1
   2    1   13 1
   3    1   28 1
   4    1   39 1
   5    2    3 1
   6    2   40 1
   7    2   41 1
   8    3    4 1
   9    3    5 1
  10    4   42 1
  11    4   43 1
  12    4   44 1
  13    5    6 1
  14    5   45 1
  15    5   46 1
  16    6    7 1
  17    6    9 2
  18    7    8 1
  19    7   11 2
  20    8   47 1
  21    8   48 1
  22    8   49 1
  23    9   10 1
  24    9   12 1
  25   10   11 1
  26   10   21 1
  27   12   50 1
  28   12   51 1
  29   12   52 1
  30   13   14 1
  31   13   53 1
  32   13   54 1
  33   14   15 1
  34   15   16 ar
  35   15   20 ar
  36   16   17 ar
  37   16   55 1
  38   17   18 ar
  39   17   56 1
  40   18   19 ar
  41   18   36 1
  42   19   20 ar
  43   19   57 1
  44   20   58 1
  45   21   22 1
  46   21   59 1
  47   21   60 1
  48   22   23 ar
  49   22   27 ar
  50   23   24 ar
  51   23   61 1
  52   24   25 ar
  53   24   62 1
  54   25   26 ar
  55   25   63 1
  56   26   27 ar
  57   26   64 1
  58   27   65 1
  59   28   29 1
  60   29   30 1
  61   29   66 1
  62   29   67 1
  63   30   31 ar
  64   30   35 ar
  65   31   32 ar
  66   31   68 1
  67   32   33 ar
  68   32   69 1
  69   33   34 ar
  70   33   70 1
  71   34   35 ar
  72   34   71 1
  73   35   72 1
  74   36   38 1
  75   37   38 1
  76   37   73 1
  77   37   74 1
  78   37   75 1
  79   38   76 1
  80   38   77 1

#	End of record

