#	Name: ASD03090203
#	Creating user name:	WinNT
#	Creation time:	15. 06. 2019 20:28

#	Modifying user name:	WinNT
#	Modification time:	15. 06. 2019 20:28

#	Program:	/corina/corina34_cracker 3.40 0067  02.08.2006

@<TRIPOS>MOLECULE
ASD03090203
  52   55    0    0    0
SMALL
NO_CHARGES


@<TRIPOS>ATOM
   1 N1             0.0327     1.1843     1.2910 N.ar    
   2 C2             0.0858    -0.1429     1.2853 C.ar    
   3 C3             1.2816    -0.8041     1.0250 C.ar    
   4 C4             2.4302    -0.0480     0.7680 C.ar    
   5 C5             2.3219     1.3460     0.7851 C.ar    
   6 C6             1.0937     1.9245     1.0535 C.ar    
   7 C7             3.7257    -0.7059     0.4861 C.2     
   8 N8             5.7389    -3.4261    -0.4635 N.pl3   
   9 C9             4.8980    -4.4765    -0.8455 C.ar    
  10 C10            3.6914    -4.2067    -1.4777 C.ar    
  11 C11            2.8625    -5.2457    -1.8540 C.ar    
  12 C12            3.2338    -6.5552    -1.6009 C.ar    
  13 C13            4.4367    -6.8267    -0.9705 C.ar    
  14 C14            5.2713    -5.7915    -0.5981 C.ar    
  15 N15            3.8929    -1.9545     0.0990 N.2     
  16 C16            5.1928    -2.2058    -0.0611 C.2     
  17 N17            5.8768    -1.1205     0.2216 N.2     
  18 N18            4.9456    -0.1305     0.5747 N.pl3   
  19 C19            5.2386     1.2496     0.9694 C.3     
  20 C20            5.2849     2.1238    -0.2572 C.2     
  21 N21            5.5405     3.4416    -0.1362 N.am    
  22 F22            2.4211    -7.5698    -1.9690 F       
  23 C23           -1.1402    -0.9265     1.5595 C.2     
  24 O24           -2.3015    -0.2933     1.8129 O.3     
  25 O25            5.0921     1.6416    -1.3532 O.2     
  26 C26            5.5855     4.2915    -1.3287 C.3     
  27 C27            5.2933     5.7821    -1.1452 C.3     
  28 C28            6.7216     5.3115    -1.4267 C.3     
  29 O29           -1.0986    -2.1401     1.5558 O.2     
  30 C30           -3.4629    -1.1251     2.0729 C.3     
  31 C31            4.8380    -8.2532    -0.6965 C.3     
  32 F32            6.0821    -8.2730    -0.0570 F       
  33 F33            3.8811    -8.8569     0.1264 F       
  34 F34            4.9233    -8.9539    -1.9043 F       
  35 H35            1.3227    -1.8833     1.0215 H       
  36 H36            3.1864     1.9638     0.5919 H       
  37 H37            1.0049     3.0007     1.0679 H       
  38 H38            6.7014    -3.5454    -0.4782 H       
  39 H39            3.4010    -3.1852    -1.6746 H       
  40 H40            1.9240    -5.0363    -2.3456 H       
  41 H41            6.2094    -6.0036    -0.1069 H       
  42 H42            4.4595     1.6083     1.6421 H       
  43 H43            6.2022     1.2853     1.4776 H       
  44 H44            5.6947     3.8273     0.7403 H       
  45 H45            5.2485     3.8226    -2.2532 H       
  46 H46            4.7643     6.2939    -1.9492 H       
  47 H47            5.0675     6.1304    -0.1373 H       
  48 H48            7.4356     5.3503    -0.6040 H       
  49 H49            7.1324     5.5138    -2.4158 H       
  50 H50           -4.3292    -0.4910     2.2612 H       
  51 H51           -3.6574    -1.7584     1.2073 H       
  52 H52           -3.2738    -1.7505     2.9455 H       
@<TRIPOS>BOND
   1    1    2 ar
   2    1    6 ar
   3    2    3 ar
   4    2   23 1
   5    3    4 ar
   6    3   35 1
   7    4    5 ar
   8    4    7 1
   9    5    6 ar
  10    5   36 1
  11    6   37 1
  12    7   15 2
  13    7   18 1
  14    8    9 1
  15    8   16 1
  16    8   38 1
  17    9   10 ar
  18    9   14 ar
  19   10   11 ar
  20   10   39 1
  21   11   12 ar
  22   11   40 1
  23   12   13 ar
  24   12   22 1
  25   13   14 ar
  26   13   31 1
  27   14   41 1
  28   15   16 1
  29   16   17 2
  30   17   18 1
  31   18   19 1
  32   19   20 1
  33   19   42 1
  34   19   43 1
  35   20   21 am
  36   20   25 2
  37   21   26 1
  38   21   44 1
  39   23   24 1
  40   23   29 2
  41   24   30 1
  42   26   27 1
  43   26   28 1
  44   26   45 1
  45   27   28 1
  46   27   46 1
  47   27   47 1
  48   28   48 1
  49   28   49 1
  50   30   50 1
  51   30   51 1
  52   30   52 1
  53   31   32 1
  54   31   33 1
  55   31   34 1

#	End of record

