#	Name: ASD03731269
#	Creating user name:	WinNT
#	Creation time:	15. 06. 2019 20:45

#	Modifying user name:	WinNT
#	Modification time:	15. 06. 2019 20:45

#	Program:	/corina/corina34_cracker 3.40 0067  02.08.2006

@<TRIPOS>MOLECULE
ASD03731269
  59   64    0    0    0
SMALL
NO_CHARGES


@<TRIPOS>ATOM
   1 N1            -0.0146     1.3419     0.0143 N.am    
   2 C2             0.0167     0.0096     0.2154 C.2     
   3 O3             1.0834    -0.5671     0.3029 O.2     
   4 N4            -1.1346    -0.6834     0.3196 N.am    
   5 C5            -1.1007    -2.1316     0.5382 C.3     
   6 C6            -2.5309    -2.6689     0.6187 C.3     
   7 O7             2.3189    -7.1513     3.4609 O.3     
   8 C8             2.7528    -8.4513     3.9022 C.3     
   9 O9             1.5767    -9.0163     4.5110 O.3     
  10 C10            0.5190    -8.4171     3.8889 C.ar    
  11 C11            0.9758    -7.2698     3.2442 C.ar    
  12 C12           -0.8183    -8.7640     3.8186 C.ar    
  13 C13           -1.7155    -7.9726     3.1078 C.ar    
  14 C14           -1.2489    -6.8245     2.4749 C.ar    
  15 C15            0.0850    -6.4792     2.5380 C.ar    
  16 O16           -3.0531    -8.1414     2.9015 O.3     
  17 C17           -2.4428    -6.1774     1.8254 C.3     
  18 C18           -3.6315    -6.8892     2.4855 C.3     
  19 N19           -2.4970    -4.1171     0.8373 N.am    
  20 C20           -2.4804    -4.6940     2.0554 C.2     
  21 C21           -2.4450    -6.3491     0.3353 C.ar    
  22 C22           -2.4218    -7.4466    -0.4960 C.ar    
  23 C23           -2.4331    -7.2764    -1.8689 C.ar    
  24 C24           -2.4672    -6.0015    -2.4042 C.ar    
  25 C25           -2.4896    -4.8990    -1.5757 C.ar    
  26 C26           -2.4788    -5.0609    -0.1924 C.ar    
  27 O27           -2.4938    -4.1263     3.1272 O.2     
  28 C28            1.1714     2.0724     0.0020 C.ar    
  29 C29            1.2005     3.3575     0.5368 C.ar    
  30 C30            2.3613     4.0776     0.5268 C.ar    
  31 C31            3.5235     3.5209    -0.0220 C.ar    
  32 C32            3.4895     2.2275    -0.5585 C.ar    
  33 C33            2.3254     1.5130    -0.5398 C.ar    
  34 C34            4.7735     4.2911    -0.0355 C.2     
  35 O35            4.7786     5.4456     0.3367 O.2     
  36 C36            6.0501     3.6473    -0.5116 C.3     
  37 H37           -0.8626     1.7915    -0.1258 H       
  38 H38           -1.9857    -0.2232     0.2498 H       
  39 H39           -0.5782    -2.6117    -0.2892 H       
  40 H40           -0.5789    -2.3461     1.4708 H       
  41 H41           -3.0534    -2.1887     1.4461 H       
  42 H42           -3.0527    -2.4543    -0.3139 H       
  43 H43            3.0733    -9.0564     3.0541 H       
  44 H44            3.5559    -8.3592     4.6334 H       
  45 H45           -1.1683    -9.6550     4.3186 H       
  46 H46            0.4354    -5.5897     2.0357 H       
  47 H47           -4.4330    -7.0533     1.7653 H       
  48 H48           -3.9919    -6.3246     3.3455 H       
  49 H49           -2.3950    -8.4412    -0.0758 H       
  50 H50           -2.4158    -8.1369    -2.5212 H       
  51 H51           -2.4759    -5.8686    -3.4759 H       
  52 H52           -2.5156    -3.9067    -2.0011 H       
  53 H53            0.3039     3.7859     0.9598 H       
  54 H54            2.3828     5.0747     0.9413 H       
  55 H55            4.3833     1.7943    -0.9827 H       
  56 H56            2.2993     0.5141    -0.9495 H       
  57 H57            5.8345     2.6470    -0.8871 H       
  58 H58            6.4848     4.2491    -1.3098 H       
  59 H59            6.7545     3.5803     0.3175 H       
@<TRIPOS>BOND
   1    1    2 am
   2    1   28 1
   3    1   37 1
   4    2    3 2
   5    2    4 am
   6    4    5 1
   7    4   38 1
   8    5    6 1
   9    5   39 1
  10    5   40 1
  11    6   19 1
  12    6   41 1
  13    6   42 1
  14    7    8 1
  15    7   11 1
  16    8    9 1
  17    8   43 1
  18    8   44 1
  19    9   10 1
  20   10   11 ar
  21   10   12 ar
  22   11   15 ar
  23   12   13 ar
  24   12   45 1
  25   13   14 ar
  26   13   16 1
  27   14   15 ar
  28   14   17 1
  29   15   46 1
  30   16   18 1
  31   17   18 1
  32   17   20 1
  33   17   21 1
  34   18   47 1
  35   18   48 1
  36   19   20 am
  37   19   26 1
  38   20   27 2
  39   21   22 ar
  40   21   26 ar
  41   22   23 ar
  42   22   49 1
  43   23   24 ar
  44   23   50 1
  45   24   25 ar
  46   24   51 1
  47   25   26 ar
  48   25   52 1
  49   28   29 ar
  50   28   33 ar
  51   29   30 ar
  52   29   53 1
  53   30   31 ar
  54   30   54 1
  55   31   32 ar
  56   31   34 1
  57   32   33 ar
  58   32   55 1
  59   33   56 1
  60   34   35 2
  61   34   36 1
  62   36   57 1
  63   36   58 1
  64   36   59 1

#	End of record

