#	Name: ASD01881339
#	Creating user name:	WinNT
#	Creation time:	15. 06. 2019 19:42

#	Modifying user name:	WinNT
#	Modification time:	15. 06. 2019 19:42

#	Program:	/corina/corina34_cracker 3.40 0067  02.08.2006

@<TRIPOS>MOLECULE
ASD01881339
  43   47    0    0    0
SMALL
NO_CHARGES


@<TRIPOS>ATOM
   1 C1            -0.0167     1.3789     0.0096 C.2     
   2 C2             0.0021    -0.0041     0.0020 C.2     
   3 C3            -1.2229    -0.7132     0.0099 C.2     
   4 C4            -2.3913    -0.0452     0.0241 C.2     
   5 N5            -2.4196     1.3211     0.0317 N.pl3   
   6 C6            -1.2557     2.0462     0.0309 C.2     
   7 C7            -3.4508     2.2218     0.0460 C.2     
   8 C8            -2.9029     3.4569     0.0476 C.2     
   9 N9            -1.5738     3.3342     0.0393 N.2     
  10 C10            1.2906    -0.7354    -0.0147 C.ar    
  11 C11            1.6538    -1.5262     1.0685 C.ar    
  12 C12            2.8685    -2.2096     1.0404 C.ar    
  13 C13            3.7141    -2.0947    -0.0786 C.ar    
  14 C14            3.3305    -1.2971    -1.1525 C.ar    
  15 C15            2.1380    -0.6335    -1.1240 C.ar    
  16 Cl16           1.4676     2.2791     0.0003 Cl      
  17 C17           -4.9222     1.8962     0.0572 C.3     
  18 C18            3.5527    -3.1064     1.9772 C.2     
  19 C19            4.7112    -3.4647     1.4042 C.2     
  20 N20            4.8276    -2.8704     0.1733 N.pl3   
  21 C21            5.9064    -3.0261    -0.6914 C.ar    
  22 N22            6.9173    -3.8009    -0.3301 N.ar    
  23 C23            7.9580    -3.9711    -1.1284 C.ar    
  24 C24            7.9812    -3.3264    -2.3554 C.ar    
  25 C25            6.9061    -2.5228    -2.7015 C.ar    
  26 N26            5.8946    -2.4002    -1.8580 N.ar    
  27 C27           -5.4601     1.9169    -1.3750 C.3     
  28 F28           -4.7782     0.9670    -2.1430 F       
  29 F29           -6.8260     1.6147    -1.3645 F       
  30 F30           -5.2679     3.1880    -1.9270 F       
  31 H31           -1.2201    -1.7932     0.0040 H       
  32 H32           -3.3198    -0.5968     0.0293 H       
  33 H33           -3.4493     4.3884     0.0575 H       
  34 H34            1.0010    -1.6104     1.9248 H       
  35 H35            3.9767    -1.2059    -2.0130 H       
  36 H36            1.8491    -0.0169    -1.9623 H       
  37 H37           -5.0720     0.9059     0.4873 H       
  38 H38           -5.4535     2.6364     0.6556 H       
  39 H39            3.1921    -3.4189     2.9461 H       
  40 H40            5.4438    -4.1238     1.8462 H       
  41 H41            8.7798    -4.6041    -0.8279 H       
  42 H42            8.8186    -3.4473    -3.0267 H       
  43 H43            6.8926    -2.0064    -3.6500 H       
@<TRIPOS>BOND
   1    1    2 2
   2    1   16 1
   3    1    6 1
   4    2    3 1
   5    2   10 1
   6    3    4 2
   7    3   31 1
   8    4    5 1
   9    4   32 1
  10    5    6 1
  11    5    7 1
  12    6    9 2
  13    7    8 2
  14    7   17 1
  15    8    9 1
  16    8   33 1
  17   10   11 ar
  18   10   15 ar
  19   11   12 ar
  20   11   34 1
  21   12   13 ar
  22   12   18 1
  23   13   14 ar
  24   13   20 1
  25   14   15 ar
  26   14   35 1
  27   15   36 1
  28   17   27 1
  29   17   37 1
  30   17   38 1
  31   18   19 2
  32   18   39 1
  33   19   20 1
  34   19   40 1
  35   20   21 1
  36   21   22 ar
  37   21   26 ar
  38   22   23 ar
  39   23   24 ar
  40   23   41 1
  41   24   25 ar
  42   24   42 1
  43   25   26 ar
  44   25   43 1
  45   27   28 1
  46   27   29 1
  47   27   30 1

#	End of record

