#	Name: ASD02030786
#	Creating user name:	WinNT
#	Creation time:	15. 06. 2019 20:16

#	Modifying user name:	WinNT
#	Modification time:	15. 06. 2019 20:16

#	Program:	/corina/corina34_cracker 3.40 0067  02.08.2006

@<TRIPOS>MOLECULE
ASD02030786
  83   86    0    0    0
SMALL
NO_CHARGES


@<TRIPOS>ATOM
   1 H1            -0.4314     0.0271    -0.2919 H       
   2 C2            -0.2100     1.0943    -0.2735 C.3     
   3 C3            -0.6535     1.7575    -1.6014 C.3     
   4 C4             0.6415     2.2709    -2.2884 C.3     
   5 C5             1.7283     1.3755    -1.6837 C.3     
   6 H6             1.6913     0.3810    -2.1282 H       
   7 C7             3.1394     1.9316    -1.7168 C.3     
   8 H8             3.1713     2.8869    -1.1929 H       
   9 C9             3.6126     2.0953    -3.1619 C.3     
  10 C10            5.0548     2.6062    -3.1714 C.3     
  11 C11            5.9578     1.6026    -2.4518 C.3     
  12 H12            5.9118     0.6412    -2.9633 H       
  13 C13            7.3994     2.1143    -2.4610 C.3     
  14 C14            8.3020     1.1088    -1.7429 C.3     
  15 O15            9.6489     1.5861    -1.7523 O.3     
  16 C16            8.2339    -0.2409    -2.4602 C.3     
  17 C17            9.0366    -1.2782    -1.6724 C.3     
  18 C18            7.8296     0.9428    -0.2971 C.3     
  19 C19            6.3881     0.4305    -0.2873 C.3     
  20 C20            5.4841     1.4339    -1.0065 C.3     
  21 C21            5.5461     2.7833    -0.2880 C.3     
  22 C22            4.0449     0.9168    -1.0018 C.3     
  23 H23            4.0091    -0.0291    -1.5423 H       
  24 C24            3.5843     0.6661     0.4299 C.3     
  25 C25            2.1101     0.2301     0.4757 C.3     
  26 C26            1.2962     1.3202    -0.1933 C.3     
  27 C27            1.5824     2.6648     0.4784 C.3     
  28 C28           -0.9098     1.7596     0.9133 C.3     
  29 H29           -0.6283     2.8117     0.9579 H       
  30 C30           -0.4889     1.0637     2.2092 C.3     
  31 C31           -2.4258     1.6442     0.7415 C.3     
  32 C32           -3.1262     2.4162     1.8615 C.3     
  33 C33           -4.6421     2.3008     1.6898 C.3     
  34 C34           -5.3425     3.0728     2.8098 C.3     
  35 C35           -6.8537     2.8553     2.7114 C.3     
  36 C36           -4.8421     2.5706     4.1656 C.3     
  37 O37           -5.0525     4.4662     2.6814 O.3     
  38 H38           -1.1495     1.0249    -2.2381 H       
  39 H39           -1.3246     2.5917    -1.3971 H       
  40 H40            0.5856     2.1339    -3.3683 H       
  41 H41            0.8212     3.3169    -2.0400 H       
  42 H42            3.5647     1.1327    -3.6711 H       
  43 H43            2.9703     2.8106    -3.6757 H       
  44 H44            5.3915     2.7242    -4.2013 H       
  45 H45            5.1026     3.5684    -2.6614 H       
  46 H46            7.7360     2.2338    -3.4908 H       
  47 H47            7.4471     3.0755    -1.9493 H       
  48 H48           10.2778     0.9973    -1.3130 H       
  49 H49            7.1949    -0.5628    -2.5310 H       
  50 H50            8.6526    -0.1416    -3.4617 H       
  51 H51           10.0756    -0.9563    -1.6016 H       
  52 H52            8.6180    -1.3774    -0.6709 H       
  53 H53            8.9882    -2.2397    -2.1834 H       
  54 H54            8.4729     0.2275     0.2155 H       
  55 H55            7.8768     1.9047     0.2133 H       
  56 H56            6.3411    -0.5315    -0.7977 H       
  57 H57            6.0518     0.3118     0.7427 H       
  58 H58            4.9016     3.4976    -0.8003 H       
  59 H59            5.2086     2.6627     0.7414 H       
  60 H60            6.5722     3.1509    -0.2932 H       
  61 H61            4.2016    -0.1162     0.8715 H       
  62 H62            3.7035     1.5822     1.0085 H       
  63 H63            1.9844    -0.7095    -0.0623 H       
  64 H64            1.7905     0.1112     1.5110 H       
  65 H65            1.2487     2.6312     1.5155 H       
  66 H66            2.6533     2.8655     0.4477 H       
  67 H67            1.0493     3.4554    -0.0495 H       
  68 H68           -0.7093    -0.0014     2.1377 H       
  69 H69            0.5806     1.2037     2.3659 H       
  70 H70           -1.0382     1.4930     3.0471 H       
  71 H71           -2.7150     2.0612    -0.2231 H       
  72 H72           -2.7176     0.5949     0.7860 H       
  73 H73           -2.8370     1.9992     2.8262 H       
  74 H74           -2.8343     3.4655     1.8171 H       
  75 H75           -4.9313     2.7178     0.7251 H       
  76 H76           -4.9340     1.2515     1.7342 H       
  77 H77           -7.0749     1.7925     2.8093 H       
  78 H78           -7.3527     3.4053     3.5093 H       
  79 H79           -7.2102     3.2131     1.7455 H       
  80 H80           -3.7655     2.7256     4.2357 H       
  81 H81           -5.3411     3.1206     4.9635 H       
  82 H82           -5.0633     1.5078     4.2636 H       
  83 H83           -5.4650     5.0180     3.3600 H       
@<TRIPOS>BOND
   1    1    2 1
   2    2   26 1
   3    2    3 1
   4    2   28 1
   5    3    4 1
   6    3   38 1
   7    3   39 1
   8    4    5 1
   9    4   40 1
  10    4   41 1
  11    5   26 1
  12    5    6 1
  13    5    7 1
  14    7   22 1
  15    7    8 1
  16    7    9 1
  17    9   10 1
  18    9   42 1
  19    9   43 1
  20   10   11 1
  21   10   44 1
  22   10   45 1
  23   11   20 1
  24   11   12 1
  25   11   13 1
  26   13   14 1
  27   13   46 1
  28   13   47 1
  29   14   15 1
  30   14   16 1
  31   14   18 1
  32   15   48 1
  33   16   17 1
  34   16   49 1
  35   16   50 1
  36   17   51 1
  37   17   52 1
  38   17   53 1
  39   18   19 1
  40   18   54 1
  41   18   55 1
  42   19   20 1
  43   19   56 1
  44   19   57 1
  45   20   21 1
  46   20   22 1
  47   21   58 1
  48   21   59 1
  49   21   60 1
  50   22   23 1
  51   22   24 1
  52   24   25 1
  53   24   61 1
  54   24   62 1
  55   25   26 1
  56   25   63 1
  57   25   64 1
  58   26   27 1
  59   27   65 1
  60   27   66 1
  61   27   67 1
  62   28   29 1
  63   28   30 1
  64   28   31 1
  65   30   68 1
  66   30   69 1
  67   30   70 1
  68   31   32 1
  69   31   71 1
  70   31   72 1
  71   32   33 1
  72   32   73 1
  73   32   74 1
  74   33   34 1
  75   33   75 1
  76   33   76 1
  77   34   35 1
  78   34   36 1
  79   34   37 1
  80   35   77 1
  81   35   78 1
  82   35   79 1
  83   36   80 1
  84   36   81 1
  85   36   82 1
  86   37   83 1

#	End of record

