#	Name: ASD01912213
#	Creating user name:	WinNT
#	Creation time:	15. 06. 2019 19:59

#	Modifying user name:	WinNT
#	Modification time:	15. 06. 2019 19:59

#	Program:	/corina/corina34_cracker 3.40 0067  02.08.2006

@<TRIPOS>MOLECULE
ASD01912213
  47   49    0    0    0
SMALL
NO_CHARGES


@<TRIPOS>ATOM
   1 N1            -0.0347     1.4874    -0.2371 N.am    
   2 C2             0.0711     0.0358    -0.0203 C.3     
   3 C3             0.6381    -0.6031    -1.2932 C.3     
   4 O4             1.8422     0.0730    -1.6631 O.3     
   5 C5             1.6626     1.4542    -1.9854 C.3     
   6 C6             1.1480     2.1984    -0.7479 C.3     
   7 C7            -1.1826     2.1453     0.0194 C.2     
   8 O8            -2.2211     1.5269     0.1523 O.2     
   9 N9            -1.1796     3.4886     0.1284 N.am    
  10 C10           -2.4347     4.2447     0.0295 C.3     
  11 C11           -2.6195     5.0647     1.3127 C.3     
  12 C12           -1.3352     5.8149     1.5898 C.2     
  13 C13           -0.0412     5.0324     1.6386 C.3     
  14 C14            0.0781     4.2127     0.3534 C.3     
  15 C15           -1.3434     7.1328     1.7857 C.2     
  16 C16           -0.1176     7.8255     2.0467 C.1     
  17 C17            0.8874     8.3934     2.2607 C.1     
  18 C18            2.1132     9.0862     2.5218 C.ar    
  19 C19            2.0989    10.4689     2.7266 C.ar    
  20 C20            3.2913    11.1225     2.9775 C.ar    
  21 C21            4.4618    10.3762     3.0164 C.ar    
  22 C22            4.4048     9.0107     2.8050 C.ar    
  23 N23            3.2565     8.4087     2.5730 N.ar    
  24 C24            5.6738     8.1989     2.8467 C.3     
  25 H25            0.7384    -0.1625     0.8185 H       
  26 H26           -0.9156    -0.3770     0.1894 H       
  27 H27            0.8537    -1.6553    -1.1075 H       
  28 H28           -0.0903    -0.5167    -2.0995 H       
  29 H29            2.6152     1.8821    -2.2977 H       
  30 H30            0.9378     1.5481    -2.7941 H       
  31 H31            0.8744     3.2178    -1.0200 H       
  32 H32            1.9237     2.2179     0.0176 H       
  33 H33           -2.3910     4.9147    -0.8292 H       
  34 H34           -3.2696     3.5535    -0.0858 H       
  35 H35           -3.4372     5.7733     1.1808 H       
  36 H36           -2.8419     4.3978     2.1456 H       
  37 H37            0.8008     5.7201     1.7166 H       
  38 H38           -0.0496     4.3627     2.4986 H       
  39 H39            0.8974     3.5004     0.4513 H       
  40 H40            0.2704     4.8807    -0.4862 H       
  41 H41           -2.2746     7.6785     1.7476 H       
  42 H42            1.1702    11.0188     2.6890 H       
  43 H43            3.3120    12.1901     3.1393 H       
  44 H44            5.4088    10.8581     3.2097 H       
  45 H45            5.8502     7.8526     3.8651 H       
  46 H46            5.5779     7.3402     2.1824 H       
  47 H47            6.5113     8.8170     2.5230 H       
@<TRIPOS>BOND
   1    1    2 1
   2    1    6 1
   3    1    7 am
   4    2    3 1
   5    2   25 1
   6    2   26 1
   7    3    4 1
   8    3   27 1
   9    3   28 1
  10    4    5 1
  11    5    6 1
  12    5   29 1
  13    5   30 1
  14    6   31 1
  15    6   32 1
  16    7    8 2
  17    7    9 am
  18    9   10 1
  19    9   14 1
  20   10   11 1
  21   10   33 1
  22   10   34 1
  23   11   12 1
  24   11   35 1
  25   11   36 1
  26   12   13 1
  27   12   15 2
  28   13   14 1
  29   13   37 1
  30   13   38 1
  31   14   39 1
  32   14   40 1
  33   15   16 1
  34   15   41 1
  35   16   17 3
  36   17   18 1
  37   18   19 ar
  38   18   23 ar
  39   19   20 ar
  40   19   42 1
  41   20   21 ar
  42   20   43 1
  43   21   22 ar
  44   21   44 1
  45   22   23 ar
  46   22   24 1
  47   24   45 1
  48   24   46 1
  49   24   47 1

#	End of record

