#	Name: ASD09116513
#	Creating user name:	WinNT
#	Creation time:	15. 06. 2019 21:21

#	Modifying user name:	WinNT
#	Modification time:	15. 06. 2019 21:21

#	Program:	/corina/corina34_cracker 3.40 0067  02.08.2006

@<TRIPOS>MOLECULE
ASD09116513
  54   59    0    0    0
SMALL
NO_CHARGES


@<TRIPOS>ATOM
   1 N1            -0.5682     3.8797     0.5340 N.2     
   2 N2            -1.1205     5.0465     1.0869 N.pl3   
   3 C3             0.7304     4.0555     0.4868 C.2     
   4 N4             1.0280     5.2644     0.9774 N.2     
   5 C5            -0.0762     5.8782     1.3451 C.2     
   6 N6            -0.1597     7.1429     1.8949 N.pl3   
   7 C7            -2.4695     5.3014     1.3229 C.ar    
   8 N8             1.6544     3.1296     0.0027 N.pl3   
   9 C9             3.0040     3.4779    -0.1009 C.ar    
  10 C10            3.9928     2.5062    -0.0073 C.ar    
  11 C11            3.3793     4.8052    -0.3054 C.ar    
  12 C12            4.7317     5.0879    -0.3999 C.ar    
  13 C13            5.6509     4.0789    -0.2897 C.ar    
  14 N14            5.2677     2.8275    -0.1029 N.ar    
  15 N15           -2.8549     6.4544     1.8536 N.ar    
  16 C16           -4.1339     6.7013     2.0798 C.ar    
  17 N17           -5.0788     5.8379     1.7987 N.ar    
  18 C18           -4.7864     4.6348     1.2552 C.ar    
  19 C19           -3.4432     4.3451     0.9979 C.ar    
  20 C20           -5.6422     3.5850     0.8863 C.2     
  21 C21           -5.0541     2.5162     0.3728 C.2     
  22 S22           -3.3140     2.7380     0.2985 S.3     
  23 C23           -7.1363     3.6695     1.0641 C.3     
  24 Cl24          -4.5787     8.2280     2.7764 Cl      
  25 C25            5.1888     6.5129    -0.6272 C.3     
  26 C26            5.8312     7.0283     0.6609 C.3     
  27 C27            7.3014     6.6462     0.7341 C.3     
  28 C28            7.5465     5.1519     0.8767 C.3     
  29 C29            7.1302     4.3965    -0.3841 C.3     
  30 O30            7.9654     7.1149    -0.4541 O.3     
  31 C31            8.9808     8.0507    -0.0450 C.3     
  32 C32            9.2238     7.6782     1.4383 C.3     
  33 O33            7.8917     7.3162     1.8696 O.3     
  34 H34            0.6464     7.6622     2.0415 H       
  35 H35           -1.0244     7.5115     2.1345 H       
  36 H36            1.3604     2.2440    -0.2622 H       
  37 H37            3.7132     1.4744     0.1462 H       
  38 H38            2.6392     5.5874    -0.3880 H       
  39 H39           -5.5742     1.6293     0.0420 H       
  40 H40           -7.5857     4.0933     0.1659 H       
  41 H41           -7.5388     2.6712     1.2354 H       
  42 H42           -7.3650     4.3052     1.9194 H       
  43 H43            5.9189     6.5386    -1.4362 H       
  44 H44            4.3319     7.1358    -0.8836 H       
  45 H45            5.7422     8.1141     0.6947 H       
  46 H46            5.3081     6.6013     1.5166 H       
  47 H47            8.6070     4.9805     1.0612 H       
  48 H48            6.9729     4.7755     1.7236 H       
  49 H49            7.6994     3.4701    -0.4605 H       
  50 H50            7.3161     5.0170    -1.2608 H       
  51 H51            9.8898     7.9131    -0.6306 H       
  52 H52            8.6177     9.0749    -0.1305 H       
  53 H53            9.9050     6.8314     1.5218 H       
  54 H54            9.5970     8.5346     2.0000 H       
@<TRIPOS>BOND
   1    1    2 1
   2    1    3 2
   3    2    7 1
   4    2    5 1
   5    3    4 1
   6    3    8 1
   7    4    5 2
   8    5    6 1
   9    6   34 1
  10    6   35 1
  11    7   15 ar
  12    7   19 ar
  13    8    9 1
  14    8   36 1
  15    9   10 ar
  16    9   11 ar
  17   10   14 ar
  18   10   37 1
  19   11   12 ar
  20   11   38 1
  21   12   13 ar
  22   12   25 1
  23   13   14 ar
  24   13   29 1
  25   15   16 ar
  26   16   17 ar
  27   16   24 1
  28   17   18 ar
  29   18   19 ar
  30   18   20 1
  31   19   22 1
  32   20   21 2
  33   20   23 1
  34   21   22 1
  35   21   39 1
  36   23   40 1
  37   23   41 1
  38   23   42 1
  39   25   26 1
  40   25   43 1
  41   25   44 1
  42   26   27 1
  43   26   45 1
  44   26   46 1
  45   27   28 1
  46   27   30 1
  47   27   33 1
  48   28   29 1
  49   28   47 1
  50   28   48 1
  51   29   49 1
  52   29   50 1
  53   30   31 1
  54   31   32 1
  55   31   51 1
  56   31   52 1
  57   32   33 1
  58   32   53 1
  59   32   54 1

#	End of record

