#	Name: ASD04370043
#	Creating user name:	WinNT
#	Creation time:	15. 06. 2019 20:49

#	Modifying user name:	WinNT
#	Modification time:	15. 06. 2019 20:49

#	Program:	/corina/corina34_cracker 3.40 0067  02.08.2006

@<TRIPOS>MOLECULE
ASD04370043
  65   65    0    0    0
SMALL
NO_CHARGES


@<TRIPOS>ATOM
   1 C1             0.9909     1.9973    -0.3670 C.2     
   2 C2             0.3700     0.6311    -0.2294 C.3     
   3 C3             1.4554    -0.3897     0.1184 C.3     
   4 C4             0.8482    -1.7939     0.1356 C.3     
   5 O5             2.1795     2.1400    -0.2037 O.2     
   6 O6             0.2242     3.0548    -0.6764 O.3     
   7 N7             2.0106    -0.0815     1.4386 N.am    
   8 C8             3.3459    -0.0647     1.6210 C.2     
   9 C9             3.9154     0.1371     3.0016 C.3     
  10 C10            5.4436     0.1146     2.9312 C.3     
  11 C11            6.0218     0.3194     4.3328 C.3     
  12 C12            7.5500     0.2970     4.2624 C.3     
  13 C13            8.1281     0.5018     5.6641 C.3     
  14 C14            9.6564     0.4793     5.5937 C.3     
  15 C15           10.2345     0.6841     6.9953 C.3     
  16 O16            4.0891    -0.2119     0.6740 O.2     
  17 O17           11.6619     0.6631     6.9296 O.3     
  18 C18           12.3047     0.8467     8.1926 C.3     
  19 C19           13.7995     0.8072     8.0059 C.ar    
  20 C20           14.4934     1.9740     7.7434 C.ar    
  21 C21           15.8637     1.9404     7.5719 C.ar    
  22 C22           16.5437     0.7346     7.6632 C.ar    
  23 C23           15.8452    -0.4348     7.9266 C.ar    
  24 C24           14.4756    -0.3950     8.1029 C.ar    
  25 O25           17.8917     0.6988     7.4944 O.3     
  26 C26           18.5254    -0.5774     7.6021 C.3     
  27 N27            1.8619    -2.7603     0.5790 N.3     
  28 C28            1.2415    -4.0358     0.9614 C.3     
  29 C29            2.8852    -2.9618    -0.4555 C.3     
  30 H30           -0.3781     0.6501     0.5631 H       
  31 H31           -0.1041     0.3510    -1.1700 H       
  32 H32            2.2482    -0.3457    -0.6284 H       
  33 H33            0.0014    -1.8152     0.8215 H       
  34 H34            0.5104    -2.0560    -0.8670 H       
  35 H35            0.6675     3.9107    -0.7538 H       
  36 H36            1.4172     0.1105     2.1815 H       
  37 H37            3.5838     1.0982     3.3945 H       
  38 H38            3.5701    -0.6622     3.6574 H       
  39 H39            5.7751    -0.8465     2.5382 H       
  40 H40            5.7889     0.9139     2.2753 H       
  41 H41            5.6902     1.2806     4.7257 H       
  42 H42            5.6765    -0.4798     4.9886 H       
  43 H43            7.8815    -0.6642     3.8695 H       
  44 H44            7.8953     1.0962     3.6066 H       
  45 H45            7.7966     1.4629     6.0570 H       
  46 H46            7.7829    -0.2975     6.3199 H       
  47 H47            9.9879    -0.4818     5.2008 H       
  48 H48           10.0016     1.2786     4.9379 H       
  49 H49            9.9030     1.6453     7.3883 H       
  50 H50            9.8893    -0.1151     7.6512 H       
  51 H51           12.0161     1.8113     8.6103 H       
  52 H52           12.0023     0.0509     8.8732 H       
  53 H53           13.9635     2.9124     7.6721 H       
  54 H54           16.4052     2.8520     7.3666 H       
  55 H55           16.3722    -1.3747     7.9981 H       
  56 H56           13.9320    -1.3043     8.3127 H       
  57 H57           19.5983    -0.4646     7.4468 H       
  58 H58           18.3434    -0.9909     8.5941 H       
  59 H59           18.1178    -1.2503     6.8476 H       
  60 H60            0.7116    -4.4532     0.1052 H       
  61 H61            2.0143    -4.7329     1.2855 H       
  62 H62            0.5384    -3.8677     1.7772 H       
  63 H63            3.3890    -2.0165    -0.6572 H       
  64 H64            3.6134    -3.6948    -0.1083 H       
  65 H65            2.4124    -3.3236    -1.3686 H       
@<TRIPOS>BOND
   1    1    2 1
   2    1    5 2
   3    1    6 1
   4    2    3 1
   5    2   30 1
   6    2   31 1
   7    3    4 1
   8    3    7 1
   9    3   32 1
  10    4   27 1
  11    4   33 1
  12    4   34 1
  13    6   35 1
  14    7    8 am
  15    7   36 1
  16    8    9 1
  17    8   16 2
  18    9   10 1
  19    9   37 1
  20    9   38 1
  21   10   11 1
  22   10   39 1
  23   10   40 1
  24   11   12 1
  25   11   41 1
  26   11   42 1
  27   12   13 1
  28   12   43 1
  29   12   44 1
  30   13   14 1
  31   13   45 1
  32   13   46 1
  33   14   15 1
  34   14   47 1
  35   14   48 1
  36   15   17 1
  37   15   49 1
  38   15   50 1
  39   17   18 1
  40   18   19 1
  41   18   51 1
  42   18   52 1
  43   19   20 ar
  44   19   24 ar
  45   20   21 ar
  46   20   53 1
  47   21   22 ar
  48   21   54 1
  49   22   23 ar
  50   22   25 1
  51   23   24 ar
  52   23   55 1
  53   24   56 1
  54   25   26 1
  55   26   57 1
  56   26   58 1
  57   26   59 1
  58   27   28 1
  59   27   29 1
  60   28   60 1
  61   28   61 1
  62   28   62 1
  63   29   63 1
  64   29   64 1
  65   29   65 1

#	End of record

