#	Name: ASD03330579
#	Creating user name:	WinNT
#	Creation time:	15. 06. 2019 20:37

#	Modifying user name:	WinNT
#	Modification time:	15. 06. 2019 20:37

#	Program:	/corina/corina34_cracker 3.40 0067  02.08.2006

@<TRIPOS>MOLECULE
ASD03330579
  60   62    0    0    0
SMALL
NO_CHARGES


@<TRIPOS>ATOM
   1 C1            -0.5185     1.8028    -0.6133 C.2     
   2 N2            -0.6419     0.4709    -0.8566 N.pl3   
   3 C3             0.8138     2.0728    -0.5303 C.2     
   4 N4             1.4823     0.9175    -0.7392 N.2     
   5 C5             0.6169    -0.0482    -0.9416 C.2     
   6 C6             0.9504    -1.4628    -1.2156 C.ar    
   7 C7             1.4180     3.3896    -0.2614 C.2     
   8 O8             0.7070     4.3613    -0.0895 O.2     
   9 C9             3.3593     4.8263     0.0616 C.3     
  10 N10            2.7586     3.5172    -0.2058 N.am    
  11 C11            3.4214     5.0600     1.5723 C.3     
  12 C12            4.2266     3.9372     2.2294 C.3     
  13 C13            4.0968     6.4038     1.8532 C.3     
  14 C14            2.0027     5.0727     2.1451 C.3     
  15 C15            4.7530     4.8658    -0.5105 C.2     
  16 N16            5.3521     6.0502    -0.7444 N.am    
  17 O17            5.3354     3.8318    -0.7604 O.2     
  18 C18            6.6657     6.0914    -1.3918 C.3     
  19 C19           -1.9080    -0.2556    -0.9855 C.3     
  20 C20           -2.8412     0.5228    -1.9182 C.3     
  21 C21           -3.6399     1.5437    -1.1141 C.3     
  22 N22           -2.8495     2.0724    -0.0006 N.3     
  23 C23           -1.6556     2.7826    -0.4826 C.3     
  24 C24           -3.6661     2.9389     0.8598 C.3     
  25 C25            2.2089    -3.1106    -2.4363 C.ar    
  26 C26            1.5734    -4.1152    -1.7266 C.ar    
  27 C27            0.6257    -3.8007    -0.7685 C.ar    
  28 C28            0.3113    -2.4829    -0.5095 C.ar    
  29 C29            1.9022    -1.7837    -2.1859 C.ar    
  30 F30            2.5214    -0.8027    -2.8783 F       
  31 F31            3.1331    -3.4250    -3.3702 F       
  32 H32            2.7541     5.6054    -0.4020 H       
  33 H33            3.3256     2.7422    -0.3429 H       
  34 H34            5.2373     3.9282     1.8214 H       
  35 H35            4.2708     4.1037     3.3057 H       
  36 H36            3.7454     2.9799     2.0293 H       
  37 H37            3.5076     7.2064     1.4097 H       
  38 H38            4.1670     6.5571     2.9301 H       
  39 H39            5.0971     6.4053     1.4201 H       
  40 H40            1.5215     4.1154     1.9450 H       
  41 H41            2.0469     5.2392     3.2214 H       
  42 H42            1.4290     5.8726     1.6770 H       
  43 H43            4.9136     6.8753    -0.4841 H       
  44 H44            7.3877     5.5466    -0.7836 H       
  45 H45            6.5996     5.6306    -2.3773 H       
  46 H46            6.9870     7.1277    -1.4961 H       
  47 H47           -1.7195    -1.2452    -1.4017 H       
  48 H48           -2.3729    -0.3544    -0.0045 H       
  49 H49           -2.2498     1.0394    -2.6741 H       
  50 H50           -3.5264    -0.1702    -2.4064 H       
  51 H51           -3.9308     2.3656    -1.7682 H       
  52 H52           -4.5372     1.0661    -0.7206 H       
  53 H53           -1.3842     3.5633     0.2280 H       
  54 H54           -1.8650     3.2297    -1.4545 H       
  55 H55           -4.5007     2.3665     1.2645 H       
  56 H56           -3.0546     3.3180     1.6786 H       
  57 H57           -4.0487     3.7752     0.2747 H       
  58 H58            1.8182    -5.1489    -1.9218 H       
  59 H59            0.1337    -4.5895    -0.2188 H       
  60 H60           -0.4285    -2.2408     0.2391 H       
@<TRIPOS>BOND
   1    1    2 1
   2    1    3 2
   3    1   23 1
   4    2   19 1
   5    2    5 1
   6    3    4 1
   7    3    7 1
   8    4    5 2
   9    5    6 1
  10    6   29 ar
  11    6   28 ar
  12    7    8 2
  13    7   10 am
  14    9   10 1
  15    9   11 1
  16    9   15 1
  17    9   32 1
  18   10   33 1
  19   11   12 1
  20   11   13 1
  21   11   14 1
  22   12   34 1
  23   12   35 1
  24   12   36 1
  25   13   37 1
  26   13   38 1
  27   13   39 1
  28   14   40 1
  29   14   41 1
  30   14   42 1
  31   15   16 am
  32   15   17 2
  33   16   18 1
  34   16   43 1
  35   18   44 1
  36   18   45 1
  37   18   46 1
  38   19   20 1
  39   19   47 1
  40   19   48 1
  41   20   21 1
  42   20   49 1
  43   20   50 1
  44   21   22 1
  45   21   51 1
  46   21   52 1
  47   22   23 1
  48   22   24 1
  49   23   53 1
  50   23   54 1
  51   24   55 1
  52   24   56 1
  53   24   57 1
  54   25   26 ar
  55   25   31 1
  56   25   29 ar
  57   26   27 ar
  58   26   58 1
  59   27   28 ar
  60   27   59 1
  61   28   60 1
  62   29   30 1

#	End of record

