#	Name: ASD01028221
#	Creating user name:	WinNT
#	Creation time:	15. 06. 2019 18:56

#	Modifying user name:	WinNT
#	Modification time:	15. 06. 2019 18:56

#	Program:	/corina/corina34_cracker 3.40 0067  02.08.2006

@<TRIPOS>MOLECULE
ASD01028221
  53   57    0    0    0
SMALL
NO_CHARGES


@<TRIPOS>ATOM
   1 C1            -0.2131     1.3976     0.1973 C.ar    
   2 C2            -0.1477     0.0242     0.1394 C.ar    
   3 C3             0.9525     2.1701     0.1925 C.ar    
   4 C4             2.1774     1.5814     0.1305 C.ar    
   5 C5             2.2779     0.1832     0.0706 C.ar    
   6 C6             1.1042    -0.6089     0.0748 C.ar    
   7 C7             3.5350    -0.4588     0.0050 C.ar    
   8 C8             3.5555    -1.8410    -0.0523 C.ar    
   9 C9             2.3603    -2.5487    -0.0441 C.ar    
  10 N10            1.1979    -1.9426     0.0176 N.ar    
  11 O11            4.6859     0.2578    -0.0019 O.3     
  12 C12            5.9085    -0.4788    -0.0703 C.3     
  13 C13            7.0725     0.4783    -0.0678 C.2     
  14 N14            7.7259     0.9429     1.0262 N.pl3   
  15 C15            8.7073     1.7815     0.5522 C.2     
  16 N16            8.6043     1.7845    -0.7665 N.2     
  17 N17            7.6409     1.0084    -1.1221 N.2     
  18 N18            7.5846     0.7354     2.3996 N.2     
  19 C19            8.3872     1.3388     3.2515 C.2     
  20 C20            9.4048     2.2060     2.7946 C.2     
  21 C21            9.5653     2.4265     1.4637 C.2     
  22 C22            8.2214     1.1067     4.7015 C.2     
  23 O23           -1.4241     2.0102     0.2540 O.3     
  24 C24           -1.4269     3.4380     0.3125 C.3     
  25 C25            7.2799     0.2956     5.2646 C.2     
  26 C26            7.3177     0.2358     6.6311 C.2     
  27 C27            8.2926     0.9984     7.2097 C.2     
  28 S28            9.2126     1.8282     5.9619 S.3     
  29 C29            8.5381     1.1041     8.6514 C.2     
  30 O30            7.7668     0.5890     9.4393 O.2     
  31 N31            9.6178     1.7719     9.1039 N.am    
  32 C32           10.6188     2.2724     8.1586 C.3     
  33 C33            9.7904     1.9972    10.5412 C.3     
  34 H34           -1.0539    -0.5633     0.1440 H       
  35 H35            0.8794     3.2467     0.2382 H       
  36 H36            3.0703     2.1888     0.1272 H       
  37 H37            4.4970    -2.3676    -0.1036 H       
  38 H38            2.3884    -3.6274    -0.0892 H       
  39 H39            5.9817    -1.1421     0.7916 H       
  40 H40            5.9259    -1.0698    -0.9860 H       
  41 H41           10.0560     2.6944     3.5044 H       
  42 H42           10.3415     3.0884     1.1091 H       
  43 H43           -0.9372     3.8389    -0.5750 H       
  44 H44           -2.4549     3.7979     0.3542 H       
  45 H45           -0.8906     3.7662     1.2029 H       
  46 H46            6.5606    -0.2559     4.6775 H       
  47 H47            6.6307    -0.3666     7.2070 H       
  48 H48           10.2977     3.2374     7.7665 H       
  49 H49           11.5750     2.3876     8.6690 H       
  50 H50           10.7285     1.5647     7.3369 H       
  51 H51            8.9525     1.5564    11.0812 H       
  52 H52           10.7200     1.5343    10.8724 H       
  53 H53            9.8272     3.0684    10.7392 H       
@<TRIPOS>BOND
   1    1    2 ar
   2    1    3 ar
   3    1   23 1
   4    2    6 ar
   5    2   34 1
   6    3    4 ar
   7    3   35 1
   8    4    5 ar
   9    4   36 1
  10    5    6 ar
  11    5    7 ar
  12    6   10 ar
  13    7    8 ar
  14    7   11 1
  15    8    9 ar
  16    8   37 1
  17    9   10 ar
  18    9   38 1
  19   11   12 1
  20   12   13 1
  21   12   39 1
  22   12   40 1
  23   13   14 1
  24   13   17 2
  25   14   15 1
  26   14   18 1
  27   15   16 2
  28   15   21 1
  29   16   17 1
  30   18   19 2
  31   19   20 1
  32   19   22 1
  33   20   21 2
  34   20   41 1
  35   21   42 1
  36   22   25 2
  37   22   28 1
  38   23   24 1
  39   24   43 1
  40   24   44 1
  41   24   45 1
  42   25   26 1
  43   25   46 1
  44   26   27 2
  45   26   47 1
  46   27   28 1
  47   27   29 1
  48   29   30 2
  49   29   31 am
  50   31   33 1
  51   31   32 1
  52   32   48 1
  53   32   49 1
  54   32   50 1
  55   33   51 1
  56   33   52 1
  57   33   53 1

#	End of record

