#	Name: ASD01916112
#	Creating user name:	WinNT
#	Creation time:	15. 06. 2019 20:06

#	Modifying user name:	WinNT
#	Modification time:	15. 06. 2019 20:06

#	Program:	/corina/corina34_cracker 3.40 0067  02.08.2006

@<TRIPOS>MOLECULE
ASD01916112
  41   43    0    0    0
SMALL
NO_CHARGES


@<TRIPOS>ATOM
   1 C1            -0.0169     1.3971     0.0097 C.ar    
   2 C2             0.0021    -0.0041     0.0020 C.ar    
   3 N3            -1.1443    -0.6596     0.0095 N.ar    
   4 C4            -2.2993    -0.0109     0.0240 C.ar    
   5 N5            -3.4811    -0.7399     0.0319 N.am    
   6 C6             1.2018     2.1490     0.0021 C.1     
   7 C7             2.2009     2.7654    -0.0041 C.1     
   8 C8             3.4197     3.5172    -0.0117 C.ar    
   9 C9             3.3829     4.9136    -0.0039 C.ar    
  10 C10            4.5628     5.6322    -0.0113 C.ar    
  11 N11           -2.3607     1.3124     0.0317 N.ar    
  12 C12           -1.2606     2.0429     0.0192 C.ar    
  13 C13            4.6535     2.8565    -0.0212 C.ar    
  14 C14            5.7806     4.9712    -0.0270 C.ar    
  15 N15           -4.7186    -0.1680     0.0469 N.3     
  16 C16           -5.6960    -1.1889    -0.3970 C.3     
  17 C17           -4.9833    -2.5051    -0.0024 C.3     
  18 C18           -3.5248    -2.0851     0.0198 C.2     
  19 C19            5.8249     3.5885    -0.0286 C.ar    
  20 O20           -2.5679    -2.8300     0.0321 O.2     
  21 C21           -7.0218    -1.0389     0.3519 C.3     
  22 C22           -5.0514     0.3316     1.3876 C.3     
  23 C23           -5.9134    -1.1167    -1.9097 C.3     
  24 F24            4.6986     1.5063    -0.0228 F       
  25 F25            4.5292     6.9828    -0.0037 F       
  26 H26            0.9398    -0.5396    -0.0102 H       
  27 H27            2.4345     5.4301     0.0077 H       
  28 H28           -1.3184     3.1213     0.0259 H       
  29 H29            6.6998     5.5382    -0.0331 H       
  30 H30           -5.3088    -2.8427     0.9815 H       
  31 H31           -5.1504    -3.2770    -0.7536 H       
  32 H32            6.7777     3.0800    -0.0360 H       
  33 H33           -7.4375    -0.0497     0.1603 H       
  34 H34           -7.7217    -1.8002     0.0075 H       
  35 H35           -6.8505    -1.1601     1.4216 H       
  36 H36           -4.3162     1.0772     1.6904 H       
  37 H37           -6.0426     0.7848     1.3708 H       
  38 H38           -5.0425    -0.4963     2.0965 H       
  39 H39           -4.9672    -1.2923    -2.4216 H       
  40 H40           -6.6352    -1.8764    -2.2097 H       
  41 H41           -6.2928    -0.1301    -2.1756 H       
@<TRIPOS>BOND
   1    1    2 ar
   2    1    6 1
   3    1   12 ar
   4    2    3 ar
   5    2   26 1
   6    3    4 ar
   7    4   11 ar
   8    4    5 1
   9    5   15 1
  10    5   18 am
  11    6    7 3
  12    7    8 1
  13    8    9 ar
  14    8   13 ar
  15    9   10 ar
  16    9   27 1
  17   10   25 1
  18   10   14 ar
  19   11   12 ar
  20   12   28 1
  21   13   19 ar
  22   13   24 1
  23   14   19 ar
  24   14   29 1
  25   15   16 1
  26   15   22 1
  27   16   17 1
  28   16   23 1
  29   16   21 1
  30   17   18 1
  31   17   30 1
  32   17   31 1
  33   18   20 2
  34   19   32 1
  35   21   33 1
  36   21   34 1
  37   21   35 1
  38   22   36 1
  39   22   37 1
  40   22   38 1
  41   23   39 1
  42   23   40 1
  43   23   41 1

#	End of record

