#	Name: ASD00340002
#	Creating user name:	WinNT
#	Creation time:	15. 06. 2019 18:35

#	Modifying user name:	WinNT
#	Modification time:	15. 06. 2019 18:35

#	Program:	/corina/corina34_cracker 3.40 0067  02.08.2006

@<TRIPOS>MOLECULE
ASD00340002
  10    9    0    0    0
SMALL
NO_CHARGES


@<TRIPOS>ATOM
   1 C1            -0.0184     1.5028     0.0103 C.3     
   2 C2             0.0021    -0.0041     0.0020 C.2     
   3 C3             1.3029    -0.7317    -0.0143 C.2     
   4 O4             1.3212    -2.0775    -0.0217 O.3     
   5 O5             2.3448    -0.1111    -0.0209 O.2     
   6 O6            -1.0356    -0.6221     0.0086 O.2     
   7 H7             1.0042     1.8801     0.0026 H       
   8 H8            -0.5455     1.8639    -0.8728 H       
   9 H9            -0.5286     1.8543     0.9071 H       
  10 H10            2.1886    -2.5047    -0.0323 H       
@<TRIPOS>BOND
   1    1    2 1
   2    1    7 1
   3    1    8 1
   4    1    9 1
   5    2    3 1
   6    2    6 2
   7    3    4 1
   8    3    5 2
   9    4   10 1

#	End of record

