#	Name: ASD01208719
#	Creating user name:	WinNT
#	Creation time:	15. 06. 2019 19:10

#	Modifying user name:	WinNT
#	Modification time:	15. 06. 2019 19:10

#	Program:	/corina/corina34_cracker 3.40 0067  02.08.2006

@<TRIPOS>MOLECULE
ASD01208719
  55   58    0    0    0
SMALL
NO_CHARGES


@<TRIPOS>ATOM
   1 C1             0.1633     1.3078    -0.1908 C.2     
   2 C2             0.1927    -0.1075     0.2148 C.ar    
   3 C3             1.3809    -0.8472     0.1062 C.ar    
   4 C4             1.3996    -2.1771     0.4897 C.ar    
   5 C5             0.2472    -2.7749     0.9789 C.ar    
   6 C6            -0.9314    -2.0431     1.0866 C.ar    
   7 C7            -0.9612    -0.7187     0.7150 C.ar    
   8 O8             1.1697     1.8382    -0.6209 O.2     
   9 N9            -0.9804     2.0138    -0.0906 N.am    
  10 O10            2.5063    -0.2611    -0.3731 O.3     
  11 C11            3.6180    -1.0298    -0.5074 C.ar    
  12 C12            3.7268    -1.9097    -1.5768 C.ar    
  13 C13            4.8532    -2.6913    -1.7164 C.ar    
  14 C14            5.8861    -2.5976    -0.7815 C.ar    
  15 C15            5.7731    -1.7116     0.2918 C.ar    
  16 C16            4.6457    -0.9298     0.4219 C.ar    
  17 O17            8.1631    -3.4469    -0.1043 O.3     
  18 C18            7.0953    -3.4342    -0.9273 C.2     
  19 N19            7.3299    -4.3043    -1.8819 N.2     
  20 N20            8.4802    -4.8470    -1.6879 N.2     
  21 C21            9.0210    -4.3495    -0.6113 C.2     
  22 C22           10.3648    -4.7194    -0.0382 C.3     
  23 O23            0.2693    -4.0792     1.3535 O.3     
  24 C24           -0.9157    -6.1791     1.5162 C.3     
  25 C25           -0.9767    -4.6660     1.7344 C.3     
  26 C26           -1.2473    -4.3742     3.2118 C.3     
  27 O27            0.0552    -6.7486     2.3966 O.3     
  28 C28            0.1917    -8.1657     2.2729 C.3     
  29 S29           -2.3848     4.3599    -0.3996 S.3     
  30 C30           -1.0082     3.3488    -0.4731 C.2     
  31 N31            0.0064     4.0095    -0.9372 N.2     
  32 C32           -0.1982     5.2754    -1.2516 C.2     
  33 C33           -1.4454     5.7041    -1.0429 C.2     
  34 Cl34           1.0528     6.2994    -1.8842 Cl      
  35 H35            2.3116    -2.7497     0.4078 H       
  36 H36           -1.8249    -2.5152     1.4676 H       
  37 H37           -1.8767    -0.1528     0.8047 H       
  38 H38           -1.7841     1.5897     0.2487 H       
  39 H39            2.9275    -1.9816    -2.2995 H       
  40 H40            4.9368    -3.3757    -2.5477 H       
  41 H41            6.5699    -1.6364     1.0169 H       
  42 H42            4.5594    -0.2414     1.2495 H       
  43 H43           10.2459    -5.5456     0.6627 H       
  44 H44           11.0334    -5.0204    -0.8448 H       
  45 H45           10.7871    -3.8596     0.4819 H       
  46 H46           -1.8931    -6.6156     1.7220 H       
  47 H47           -0.6355    -6.3863     0.4834 H       
  48 H48           -1.7778    -4.2434     1.1280 H       
  49 H49           -2.1977    -4.8218     3.5024 H       
  50 H50           -0.4462    -4.7968     3.8182 H       
  51 H51           -1.2907    -3.2963     3.3672 H       
  52 H52            0.9470    -8.5205     2.9741 H       
  53 H53           -0.7627    -8.6433     2.4944 H       
  54 H54            0.4949    -8.4140     1.2558 H       
  55 H55           -1.8139     6.7009    -1.2353 H       
@<TRIPOS>BOND
   1    1    2 1
   2    1    8 2
   3    1    9 am
   4    2    3 ar
   5    2    7 ar
   6    3    4 ar
   7    3   10 1
   8    4    5 ar
   9    4   35 1
  10    5    6 ar
  11    5   23 1
  12    6    7 ar
  13    6   36 1
  14    7   37 1
  15    9   30 1
  16    9   38 1
  17   10   11 1
  18   11   12 ar
  19   11   16 ar
  20   12   13 ar
  21   12   39 1
  22   13   14 ar
  23   13   40 1
  24   14   15 ar
  25   14   18 1
  26   15   16 ar
  27   15   41 1
  28   16   42 1
  29   17   18 1
  30   17   21 1
  31   18   19 2
  32   19   20 1
  33   20   21 2
  34   21   22 1
  35   22   43 1
  36   22   44 1
  37   22   45 1
  38   23   25 1
  39   24   25 1
  40   24   27 1
  41   24   46 1
  42   24   47 1
  43   25   26 1
  44   25   48 1
  45   26   49 1
  46   26   50 1
  47   26   51 1
  48   27   28 1
  49   28   52 1
  50   28   53 1
  51   28   54 1
  52   29   30 1
  53   29   33 1
  54   30   31 2
  55   31   32 1
  56   32   33 2
  57   32   34 1
  58   33   55 1

#	End of record

