#	Name: ASD00131016
#	Creating user name:	WinNT
#	Creation time:	15. 06. 2019 18:31

#	Modifying user name:	WinNT
#	Modification time:	15. 06. 2019 18:31

#	Program:	/corina/corina34_cracker 3.40 0067  02.08.2006

@<TRIPOS>MOLECULE
ASD00131016
  66   70    0    0    0
SMALL
NO_CHARGES


@<TRIPOS>ATOM
   1 N1             1.5805     1.3076    -1.2632 N.am    
   2 C2             1.6600    -0.0332    -1.2213 C.2     
   3 C3             1.4071    -0.7618     0.0210 C.2     
   4 C4             1.0798    -0.0439     1.1737 C.2     
   5 C5             1.0044     1.4180     1.0837 C.ar    
   6 C6             0.6800     2.1851     2.2086 C.ar    
   7 C7             0.6137     3.5455     2.1071 C.ar    
   8 C8             0.8658     4.1744     0.8956 C.ar    
   9 C9             1.1868     3.4390    -0.2244 C.ar    
  10 C10            1.2600     2.0506    -0.1457 C.ar    
  11 C11            1.4956    -2.2268     0.0562 C.2     
  12 O12            2.5840    -2.7708     0.0575 O.2     
  13 N13            0.3712    -2.9692     0.0872 N.am    
  14 O14            1.9462    -0.6500    -2.2321 O.2     
  15 C15            1.8470     1.9988    -2.5270 C.3     
  16 C16            3.2699     1.6818    -2.9915 C.3     
  17 C17            0.8481     1.5284    -3.5861 C.3     
  18 O18            0.8388    -0.6790     2.3396 O.3     
  19 C19            0.4580    -4.4244     0.2327 C.3     
  20 C20           -0.9508    -5.0213     0.2389 C.3     
  21 C21           -0.8601    -6.5410     0.3908 C.3     
  22 N22           -4.4919    -9.2413     0.1940 N.3     
  23 C23           -3.2406    -9.1494    -0.5733 C.3     
  24 C24           -2.1652    -8.5462     0.3045 C.3     
  25 N25           -2.2127    -7.1141     0.3968 N.3     
  26 C26           -3.0045    -6.5534     1.4553 C.3     
  27 C27           -4.2646    -7.3100     1.7838 C.3     
  28 C28           -3.9893    -8.3170     2.9006 C.3     
  29 C29           -3.3468    -9.5669     2.3059 C.3     
  30 C30           -4.3260   -10.1881     1.3045 C.3     
  31 C31           -4.9701    -7.9364     0.6137 C.3     
  32 C32           -2.0182    -9.2614     1.6322 C.3     
  33 H33            0.4823     1.7025     3.1544 H       
  34 H34            0.3630     4.1362     2.9757 H       
  35 H35            0.8093     5.2510     0.8303 H       
  36 H36            1.3807     3.9385    -1.1621 H       
  37 H37           -0.4956    -2.5401     0.0131 H       
  38 H38            1.7433     3.0741    -2.3819 H       
  39 H39            3.3736     0.6064    -3.1366 H       
  40 H40            3.4682     2.1961    -3.9319 H       
  41 H41            3.9816     2.0169    -2.2370 H       
  42 H42           -0.1656     1.7543    -3.2552 H       
  43 H43            1.0464     2.0427    -4.5265 H       
  44 H44            0.9518     0.4531    -3.7312 H       
  45 H45            0.8390    -1.6434     2.2695 H       
  46 H46            1.0249    -4.8397    -0.6006 H       
  47 H47            0.9593    -4.6666     1.1698 H       
  48 H48           -1.5177    -4.6060     1.0721 H       
  49 H49           -1.4521    -4.7791    -0.6982 H       
  50 H50           -0.2932    -6.9563    -0.4424 H       
  51 H51           -0.3588    -6.7832     1.3279 H       
  52 H52           -2.9345   -10.1457    -0.8922 H       
  53 H53           -3.3948    -8.5169    -1.4475 H       
  54 H54           -1.2326    -8.7590    -0.2181 H       
  55 H55           -2.3899    -6.5042     2.3541 H       
  56 H56           -3.2783    -5.5358     1.1765 H       
  57 H57           -4.9618    -6.5808     2.1964 H       
  58 H58           -3.3136    -7.8735     3.6319 H       
  59 H59           -4.9268    -8.5861     3.3870 H       
  60 H60           -3.1639   -10.2826     3.1074 H       
  61 H61           -5.2873   -10.3627     1.7877 H       
  62 H62           -3.9237   -11.1295     0.9301 H       
  63 H63           -4.8865    -7.2570    -0.2345 H       
  64 H64           -6.0265    -8.0287     0.8659 H       
  65 H65           -1.4869   -10.1987     1.4669 H       
  66 H66           -1.4230    -8.6389     2.3002 H       
@<TRIPOS>BOND
   1    1    2 am
   2    1   10 1
   3    1   15 1
   4    2    3 1
   5    2   14 2
   6    3    4 2
   7    3   11 1
   8    4    5 1
   9    4   18 1
  10    5    6 ar
  11    5   10 ar
  12    6    7 ar
  13    6   33 1
  14    7    8 ar
  15    7   34 1
  16    8    9 ar
  17    8   35 1
  18    9   10 ar
  19    9   36 1
  20   11   12 2
  21   11   13 am
  22   13   19 1
  23   13   37 1
  24   15   16 1
  25   15   17 1
  26   15   38 1
  27   16   39 1
  28   16   40 1
  29   16   41 1
  30   17   42 1
  31   17   43 1
  32   17   44 1
  33   18   45 1
  34   19   20 1
  35   19   46 1
  36   19   47 1
  37   20   21 1
  38   20   48 1
  39   20   49 1
  40   21   25 1
  41   21   50 1
  42   21   51 1
  43   22   23 1
  44   22   30 1
  45   22   31 1
  46   23   24 1
  47   23   52 1
  48   23   53 1
  49   24   25 1
  50   24   32 1
  51   24   54 1
  52   25   26 1
  53   26   27 1
  54   26   55 1
  55   26   56 1
  56   27   28 1
  57   27   31 1
  58   27   57 1
  59   28   29 1
  60   28   58 1
  61   28   59 1
  62   29   30 1
  63   29   32 1
  64   29   60 1
  65   30   61 1
  66   30   62 1
  67   31   63 1
  68   31   64 1
  69   32   65 1
  70   32   66 1

#	End of record

