#	Name: ASD00960071
#	Creating user name:	WinNT
#	Creation time:	15. 06. 2019 18:53

#	Modifying user name:	WinNT
#	Modification time:	15. 06. 2019 18:53

#	Program:	/corina/corina34_cracker 3.40 0067  02.08.2006

@<TRIPOS>MOLECULE
ASD00960071
  50   52    0    0    0
SMALL
NO_CHARGES


@<TRIPOS>ATOM
   1 C1            -0.0189     1.5409     0.0105 C.3     
   2 C2             0.0021    -0.0041     0.0020 C.3     
   3 C3            -0.6985    -0.3962     1.3218 C.3     
   4 O4            -1.5292     0.7387     1.6500 O.3     
   5 C5            -0.7297     1.8993     1.3344 C.3     
   6 C6            -1.6237     3.1262     1.1437 C.3     
   7 C7            -1.5461    -1.6259     1.1205 C.2     
   8 C8            -1.1006    -2.9033     1.1910 C.2     
   9 N9            -2.8719    -1.6254     0.8470 N.pl3   
  10 C10           -3.3007    -2.9314     0.7313 C.2     
  11 C11           -2.1953    -3.7564     0.9454 C.2     
  12 N12           -3.8126    -0.5997     0.6743 N.2     
  13 C13           -5.0572    -0.8923     0.4115 C.2     
  14 N14           -5.4829    -2.1484     0.2980 N.2     
  15 C15           -4.6596    -3.1746     0.4455 C.2     
  16 O16           -2.2379     3.4662     2.3884 O.3     
  17 N17           -5.1269    -4.4684     0.3228 N.pl3   
  18 C18           -2.1772    -5.1880     0.9208 C.1     
  19 C19           -2.1623    -6.3618     0.9006 C.1     
  20 Si20          -2.1382    -8.2613     0.8680 Si      
  21 C21           -0.4110    -8.8666     1.2160 C.3     
  22 C22           -3.3004    -8.9195     2.1668 C.3     
  23 C23           -2.6797    -8.8605    -0.8109 C.3     
  24 C24           -0.7764    -0.5442    -1.1993 C.3     
  25 O25            1.3126     2.0597     0.0006 O.3     
  26 *26            1.4358     3.3108    -0.6380 Du      
  27 O27            1.3471    -0.4865    -0.0166 O.3     
  28 *28            2.0811    -0.0947    -1.1549 Du      
  29 H29           -0.5818     1.9199    -0.8424 H       
  30 H30            0.0385    -0.5666     2.1065 H       
  31 H31            0.0026     2.0810     2.1211 H       
  32 H32           -1.0207     3.9646     0.7951 H       
  33 H33           -2.3953     2.9025     0.4070 H       
  34 H34           -0.0869    -3.2128     1.3981 H       
  35 H35           -5.7660    -0.0877     0.2820 H       
  36 H36           -2.8202     4.2368     2.3421 H       
  37 H37           -6.0633    -4.6293     0.1274 H       
  38 H38           -4.5187    -5.2161     0.4320 H       
  39 H39           -0.0942    -8.5160     2.1982 H       
  40 H40           -0.3972    -9.9563     1.1973 H       
  41 H41            0.2689    -8.4815     0.4561 H       
  42 H42           -4.3110    -8.5654     1.9632 H       
  43 H43           -3.2866   -10.0093     2.1481 H       
  44 H44           -2.9836    -8.5690     3.1491 H       
  45 H45           -1.9998    -8.4754    -1.5708 H       
  46 H46           -2.6659    -9.9502    -0.8296 H       
  47 H47           -3.6903    -8.5064    -1.0145 H       
  48 H48           -0.3071    -0.2001    -2.1209 H       
  49 H49           -0.7727    -1.6339    -1.1745 H       
  50 H50           -1.8042    -0.1834    -1.1582 H       
@<TRIPOS>BOND
   1    1    2 1
   2    1   25 1
   3    1    5 1
   4    1   29 1
   5    2   24 1
   6    2   27 1
   7    2    3 1
   8    3    4 1
   9    3    7 1
  10    3   30 1
  11    4    5 1
  12    5    6 1
  13    5   31 1
  14    6   16 1
  15    6   32 1
  16    6   33 1
  17    7    8 2
  18    7    9 1
  19    8   11 1
  20    8   34 1
  21    9   10 1
  22    9   12 1
  23   10   11 2
  24   10   15 1
  25   11   18 1
  26   12   13 2
  27   13   14 1
  28   13   35 1
  29   14   15 2
  30   15   17 1
  31   16   36 1
  32   17   37 1
  33   17   38 1
  34   18   19 3
  35   19   20 1
  36   20   21 1
  37   20   22 1
  38   20   23 1
  39   21   39 1
  40   21   40 1
  41   21   41 1
  42   22   42 1
  43   22   43 1
  44   22   44 1
  45   23   45 1
  46   23   46 1
  47   23   47 1
  48   24   48 1
  49   24   49 1
  50   24   50 1
  51   25   26 1
  52   27   28 1

#	End of record

