#	Name: ASD05143329
#	Creating user name:	WinNT
#	Creation time:	15. 06. 2019 20:57

#	Modifying user name:	WinNT
#	Modification time:	15. 06. 2019 20:57

#	Program:	/corina/corina34_cracker 3.40 0067  02.08.2006

@<TRIPOS>MOLECULE
ASD05143329
  48   50    0    0    0
SMALL
NO_CHARGES


@<TRIPOS>ATOM
   1 C1             0.0166     1.2861    -0.2326 C.2     
   2 N2            -0.0117    -0.0169    -0.4321 N.2     
   3 S3            -1.6538    -0.4523    -0.3968 S.3     
   4 C4            -2.2204     1.1494    -0.1139 C.2     
   5 N5            -1.1399     1.8966    -0.0603 N.2     
   6 N6            -3.5325     1.5611     0.0316 N.pl3   
   7 C7            -3.8299     2.9228     0.1404 C.ar    
   8 C8            -3.0087     3.8733    -0.4533 C.ar    
   9 N9            -3.2860     5.1578    -0.3528 N.ar    
  10 C10           -4.3424     5.5912     0.3072 C.ar    
  11 C11           -5.2066     4.7064     0.9247 C.ar    
  12 C12           -4.9569     3.3464     0.8405 C.ar    
  13 C13            1.0617    -0.8484    -0.6280 C.ar    
  14 C14            2.0297    -0.5308    -1.5804 C.ar    
  15 C15            1.1941    -2.0177     0.1315 C.ar    
  16 C16            2.2805    -2.8505    -0.0734 C.ar    
  17 C17            3.2316    -2.5284    -1.0248 C.ar    
  18 C18            3.1076    -1.3714    -1.7731 C.ar    
  19 C19            1.2949     2.0326    -0.1972 C.ar    
  20 C20            1.4526     3.1936    -0.9627 C.ar    
  21 C21            2.3450     1.5856     0.6031 C.ar    
  22 C22            3.5343     2.2853     0.6323 C.ar    
  23 C23            3.6887     3.4295    -0.1302 C.ar    
  24 C24            2.6521     3.8853    -0.9231 C.ar    
  25 O25            0.2595    -2.3333     1.0664 O.3     
  26 C26            0.4605    -3.5414     1.8027 C.3     
  27 O27            0.4335     3.6402    -1.7418 O.3     
  28 C28            0.6670     4.8318    -2.4952 C.3     
  29 H29           -4.2465     0.9051     0.0583 H       
  30 H30           -2.1342     3.5565    -1.0022 H       
  31 H31           -4.5348     6.6522     0.3663 H       
  32 H32           -6.0689     5.0711     1.4631 H       
  33 H33           -5.6153     2.6326     1.3133 H       
  34 H34            1.9359     0.3714    -2.1667 H       
  35 H35            2.3860    -3.7528     0.5107 H       
  36 H36            4.0776    -3.1812    -1.1812 H       
  37 H37            3.8545    -1.1272    -2.5140 H       
  38 H38            2.2280     0.6931     1.1999 H       
  39 H39            4.3473     1.9385     1.2529 H       
  40 H40            4.6222     3.9721    -0.1019 H       
  41 H41            2.7792     4.7789    -1.5161 H       
  42 H42            0.4837    -4.3866     1.1147 H       
  43 H43            1.4064    -3.4854     2.3414 H       
  44 H44           -0.3551    -3.6737     2.5135 H       
  45 H45            0.8973     5.6522    -1.8155 H       
  46 H46            1.5064     4.6746    -3.1726 H       
  47 H47           -0.2245     5.0773    -3.0723 H       
  48 Br48           9.6222    11.6522     7.5135 Br      
@<TRIPOS>BOND
   1    1    2 2
   2    1   19 1
   3    1    5 1
   4    2    3 1
   5    2   13 1
   6    3    4 1
   7    4    5 2
   8    4    6 1
   9    6    7 1
  10    6   29 1
  11    7    8 ar
  12    7   12 ar
  13    8    9 ar
  14    8   30 1
  15    9   10 ar
  16   10   11 ar
  17   10   31 1
  18   11   12 ar
  19   11   32 1
  20   12   33 1
  21   13   14 ar
  22   13   15 ar
  23   14   18 ar
  24   14   34 1
  25   15   16 ar
  26   15   25 1
  27   16   17 ar
  28   16   35 1
  29   17   18 ar
  30   17   36 1
  31   18   37 1
  32   19   20 ar
  33   19   21 ar
  34   20   27 1
  35   20   24 ar
  36   21   22 ar
  37   21   38 1
  38   22   23 ar
  39   22   39 1
  40   23   24 ar
  41   23   40 1
  42   24   41 1
  43   25   26 1
  44   26   42 1
  45   26   43 1
  46   26   44 1
  47   27   28 1
  48   28   45 1
  49   28   46 1
  50   28   47 1

#	End of record

