#	Name: ASD03091142
#	Creating user name:	WinNT
#	Creation time:	15. 06. 2019 20:30

#	Modifying user name:	WinNT
#	Modification time:	15. 06. 2019 20:30

#	Program:	/corina/corina34_cracker 3.40 0067  02.08.2006

@<TRIPOS>MOLECULE
ASD03091142
  38   41    0    0    0
SMALL
NO_CHARGES


@<TRIPOS>ATOM
   1 N1             0.0056     1.2599     0.0274 N.2     
   2 C2            -0.8763     1.4033    -0.9141 C.2     
   3 N3            -0.7233     2.2608    -1.9579 N.am    
   4 C4             0.3887     3.0251    -2.0638 C.2     
   5 C5             1.4079     2.8865    -1.0129 C.ar    
   6 C6             2.5879     3.6266    -1.0291 C.ar    
   7 C7             3.5112     3.4529    -0.0120 C.ar    
   8 C8             3.2634     2.5464     1.0187 C.ar    
   9 C9             2.1110     1.8142     1.0466 C.ar    
  10 C10            1.1622     1.9699     0.0335 C.ar    
  11 O11            0.5394     3.7969    -2.9930 O.2     
  12 C12           -1.7710     2.3581    -2.9772 C.3     
  13 N13            4.6987     4.1899    -0.0184 N.3     
  14 C14            4.4216     5.6448    -0.1285 C.3     
  15 C15            5.7383     6.2561    -0.6512 C.3     
  16 C16            6.4593     5.0880    -1.3764 C.3     
  17 C17            5.5101     3.8812    -1.2234 C.3     
  18 N18            6.3971     6.9884    -2.8375 N.3     
  19 C19            5.4081     7.2703    -1.7659 C.3     
  20 C20            6.4966     5.5067    -2.8609 C.3     
  21 H21           -1.7779     0.8107    -0.8660 H       
  22 H22            2.7808     4.3285    -1.8269 H       
  23 H23            3.9929     2.4217     1.8053 H       
  24 H24            1.9335     1.1156     1.8509 H       
  25 H25           -2.5834     1.6749    -2.7296 H       
  26 H26           -2.1520     3.3788    -3.0103 H       
  27 H27           -1.3571     2.0931    -3.9501 H       
  28 H28            3.6122     5.8247    -0.8360 H       
  29 H29            4.1722     6.0589     0.8485 H       
  30 H30            6.3416     6.6871     0.1478 H       
  31 H31            7.4502     4.8910    -0.9673 H       
  32 H32            6.0816     2.9654    -1.0721 H       
  33 H33            4.8687     3.7892    -2.0998 H       
  34 H34            6.0781     7.3434    -3.7264 H       
  35 H35            4.3942     7.1133    -2.1341 H       
  36 H36            5.5261     8.2898    -1.3989 H       
  37 H37            7.4355     5.1964    -3.3195 H       
  38 H38            5.6507     5.0777    -3.3979 H       
@<TRIPOS>BOND
   1    1    2 2
   2    1   10 1
   3    2    3 1
   4    2   21 1
   5    3    4 am
   6    3   12 1
   7    4    5 1
   8    4   11 2
   9    5    6 ar
  10    5   10 ar
  11    6    7 ar
  12    6   22 1
  13    7    8 ar
  14    7   13 1
  15    8    9 ar
  16    8   23 1
  17    9   10 ar
  18    9   24 1
  19   12   25 1
  20   12   26 1
  21   12   27 1
  22   13   14 1
  23   13   17 1
  24   14   15 1
  25   14   28 1
  26   14   29 1
  27   15   16 1
  28   15   19 1
  29   15   30 1
  30   16   17 1
  31   16   20 1
  32   16   31 1
  33   17   32 1
  34   17   33 1
  35   18   19 1
  36   18   20 1
  37   18   34 1
  38   19   35 1
  39   19   36 1
  40   20   37 1
  41   20   38 1

#	End of record

