#	Name: ASD01028181
#	Creating user name:	WinNT
#	Creation time:	15. 06. 2019 18:56

#	Modifying user name:	WinNT
#	Modification time:	15. 06. 2019 18:56

#	Program:	/corina/corina34_cracker 3.40 0067  02.08.2006

@<TRIPOS>MOLECULE
ASD01028181
  39   41    0    0    0
SMALL
NO_CHARGES


@<TRIPOS>ATOM
   1 C1            -0.0184     1.5028     0.0103 C.2     
   2 C2             0.0021    -0.0041     0.0020 C.3     
   3 O3             1.0236     2.1234     0.0037 O.2     
   4 N4            -1.1946     2.1607     0.0195 N.am    
   5 N5            -1.2136     3.5616     0.0272 N.pl3   
   6 O6             1.3556    -0.4620    -0.0134 O.3     
   7 N7             1.9271    -4.5465    -0.0411 N.ar    
   8 C8             0.7124    -4.0500    -0.0259 C.ar    
   9 C9             0.4812    -2.6803    -0.0169 C.ar    
  10 C10            1.5515    -1.8036    -0.0224 C.ar    
  11 C11            2.8550    -2.3491    -0.0383 C.ar    
  12 C12            3.9890    -1.5235    -0.0443 C.ar    
  13 C13            5.2311    -2.0791    -0.0591 C.ar    
  14 C14            5.3935    -3.4675    -0.0685 C.ar    
  15 C15            4.3006    -4.3043    -0.0629 C.ar    
  16 C16            3.0077    -3.7571    -0.0477 C.ar    
  17 O17            6.6443    -3.9970    -0.0836 O.3     
  18 C18            7.7381    -3.0774    -0.0891 C.3     
  19 C19           -2.4277     4.2407     0.0366 C.ar    
  20 C20           -2.4500     5.6355     0.0443 C.ar    
  21 C21           -3.6844     6.2642     0.0536 C.ar    
  22 C22           -4.8229     5.4675     0.0547 C.ar    
  23 N23           -4.7080     4.1538     0.0470 N.ar    
  24 N24           -3.5672     3.5658     0.0329 N.ar    
  25 Cl25          -6.3960     6.2014     0.0668 Cl      
  26 H26           -0.4983    -0.3791     0.8948 H       
  27 H27           -0.5153    -0.3696    -0.8850 H       
  28 H28           -2.0280     1.6644     0.0207 H       
  29 H29           -0.3802     4.0579     0.0259 H       
  30 H30           -0.1308    -4.7249    -0.0211 H       
  31 H31           -0.5300    -2.3013    -0.0051 H       
  32 H32            3.8765    -0.4494    -0.0375 H       
  33 H33            6.1017    -1.4399    -0.0640 H       
  34 H34            4.4368    -5.3757    -0.0706 H       
  35 H35            8.6774    -3.6301    -0.1014 H       
  36 H36            7.6768    -2.4453    -0.9750 H       
  37 H37            7.6942    -2.4553     0.8048 H       
  38 H38           -1.5338     6.2072     0.0434 H       
  39 H39           -3.7596     7.3416     0.0602 H       
@<TRIPOS>BOND
   1    1    2 1
   2    1    3 2
   3    1    4 am
   4    2    6 1
   5    2   26 1
   6    2   27 1
   7    4    5 1
   8    4   28 1
   9    5   19 1
  10    5   29 1
  11    6   10 1
  12    7    8 ar
  13    7   16 ar
  14    8    9 ar
  15    8   30 1
  16    9   10 ar
  17    9   31 1
  18   10   11 ar
  19   11   12 ar
  20   11   16 ar
  21   12   13 ar
  22   12   32 1
  23   13   14 ar
  24   13   33 1
  25   14   15 ar
  26   14   17 1
  27   15   16 ar
  28   15   34 1
  29   17   18 1
  30   18   35 1
  31   18   36 1
  32   18   37 1
  33   19   20 ar
  34   19   24 ar
  35   20   21 ar
  36   20   38 1
  37   21   22 ar
  38   21   39 1
  39   22   23 ar
  40   22   25 1
  41   23   24 ar

#	End of record

