#	Name: ASD01917127
#	Creating user name:	WinNT
#	Creation time:	15. 06. 2019 20:08

#	Modifying user name:	WinNT
#	Modification time:	15. 06. 2019 20:08

#	Program:	/corina/corina34_cracker 3.40 0067  02.08.2006

@<TRIPOS>MOLECULE
ASD01917127
  41   43    0    0    0
SMALL
NO_CHARGES


@<TRIPOS>ATOM
   1 C1            -0.0424     1.4700     0.1510 C.ar    
   2 C2            -0.0085    -0.0060     0.0632 C.2     
   3 N3             1.0567    -0.7658     0.2105 N.2     
   4 C4             0.7166    -2.0517     0.0669 C.2     
   5 N5            -0.5744    -2.1279    -0.1746 N.2     
   6 N6            -1.0681    -0.8133    -0.1769 N.pl3   
   7 C7            -2.4545    -0.3972    -0.4029 C.3     
   8 C8            -3.1967    -0.3893     0.9087 C.2     
   9 Cl9           -4.8714     0.0653     0.9555 Cl      
  10 O10           -2.6264    -0.6993     1.9272 O.2     
  11 C11            1.6451    -3.2050     0.1638 C.ar    
  12 C12            1.1314     2.2076    -0.0107 C.ar    
  13 C13            1.1664    -4.5029    -0.0059 C.ar    
  14 C14            2.9986    -2.9922     0.4190 C.ar    
  15 C15            3.8593    -4.0660     0.5080 C.ar    
  16 C16            3.3787    -5.3581     0.3433 C.ar    
  17 C17            2.0318    -5.5728     0.0842 C.ar    
  18 O18            4.2292    -6.4141     0.4307 O.3     
  19 C19            3.6678    -7.7158     0.2509 C.3     
  20 C20            1.0959     3.5830     0.0713 C.ar    
  21 C21           -0.1060     4.2350     0.3150 C.ar    
  22 C22           -1.2760     3.5044     0.4765 C.ar    
  23 C23           -1.2492     2.1290     0.3901 C.ar    
  24 O24           -0.1370     5.5905     0.3961 O.3     
  25 C25           -1.4063     6.1964     0.6489 C.3     
  26 H26           -2.4677     0.6039    -0.8339 H       
  27 H27           -2.9359    -1.0944    -1.0886 H       
  28 H28            2.0664     1.7012    -0.1996 H       
  29 H29            0.1187    -4.6705    -0.2075 H       
  30 H30            3.3731    -1.9873     0.5465 H       
  31 H31            4.9082    -3.9017     0.7058 H       
  32 H32            1.6607    -6.5791    -0.0431 H       
  33 H33            2.9050    -7.8905     1.0097 H       
  34 H34            3.2174    -7.7837    -0.7394 H       
  35 H35            4.4527    -8.4662     0.3453 H       
  36 H36            2.0038     4.1543    -0.0538 H       
  37 H37           -2.2088     4.0148     0.6660 H       
  38 H38           -2.1595     1.5616     0.5154 H       
  39 H39           -2.0994     5.9348    -0.1506 H       
  40 H40           -1.7973     5.8370     1.6008 H       
  41 H41           -1.2903     7.2794     0.6894 H       
@<TRIPOS>BOND
   1    1    2 1
   2    1   12 ar
   3    1   23 ar
   4    2    3 2
   5    2    6 1
   6    3    4 1
   7    4    5 2
   8    4   11 1
   9    5    6 1
  10    6    7 1
  11    7    8 1
  12    7   26 1
  13    7   27 1
  14    8    9 1
  15    8   10 2
  16   11   13 ar
  17   11   14 ar
  18   12   20 ar
  19   12   28 1
  20   13   17 ar
  21   13   29 1
  22   14   15 ar
  23   14   30 1
  24   15   16 ar
  25   15   31 1
  26   16   17 ar
  27   16   18 1
  28   17   32 1
  29   18   19 1
  30   19   33 1
  31   19   34 1
  32   19   35 1
  33   20   21 ar
  34   20   36 1
  35   21   22 ar
  36   21   24 1
  37   22   23 ar
  38   22   37 1
  39   23   38 1
  40   24   25 1
  41   25   39 1
  42   25   40 1
  43   25   41 1

#	End of record

