#	Name: ASD01420200
#	Creating user name:	WinNT
#	Creation time:	15. 06. 2019 19:20

#	Modifying user name:	WinNT
#	Modification time:	15. 06. 2019 19:20

#	Program:	/corina/corina34_cracker 3.40 0067  02.08.2006

@<TRIPOS>MOLECULE
ASD01420200
  25   25    0    0    0
SMALL
NO_CHARGES


@<TRIPOS>ATOM
   1 C1            -0.0179     1.4698     0.0101 C.2     
   2 C2             0.0021    -0.0041     0.0020 C.ar    
   3 C3             1.2235    -0.6928    -0.0133 C.ar    
   4 C4             1.2301    -2.0794    -0.0209 C.ar    
   5 C5             0.0386    -2.7775    -0.0138 C.ar    
   6 C6            -1.1701    -2.1010     0.0014 C.ar    
   7 C7            -1.1958    -0.7233     0.0154 C.ar    
   8 O8             1.0260     2.0916     0.0035 O.2     
   9 O9            -1.1939     2.1276     0.0193 O.3     
  10 O10            2.3931    -0.0059    -0.0212 O.3     
  11 C11            3.5972    -0.7751    -0.0368 C.3     
  12 C12           -2.4629    -2.8754     0.0085 C.3     
  13 C13           -2.8872    -3.1462     1.4533 C.3     
  14 H14            2.1683    -2.6142    -0.0327 H       
  15 H15            0.0492    -3.8574    -0.0204 H       
  16 H16           -2.1405    -0.2001     0.0321 H       
  17 H17           -1.1564     3.0939     0.0244 H       
  18 H18            3.6354    -1.4083     0.8496 H       
  19 H19            3.6181    -1.3992    -0.9302 H       
  20 H20            4.4566    -0.1047    -0.0418 H       
  21 H21           -3.2366    -2.2955    -0.4947 H       
  22 H22           -2.3221    -3.8225    -0.5124 H       
  23 H23           -2.1136    -3.7261     1.9566 H       
  24 H24           -3.0281    -2.1992     1.9742 H       
  25 H25           -3.8223    -3.7063     1.4585 H       
@<TRIPOS>BOND
   1    1    2 1
   2    1    8 2
   3    1    9 1
   4    2    3 ar
   5    2    7 ar
   6    3    4 ar
   7    3   10 1
   8    4    5 ar
   9    4   14 1
  10    5    6 ar
  11    5   15 1
  12    6    7 ar
  13    6   12 1
  14    7   16 1
  15    9   17 1
  16   10   11 1
  17   11   18 1
  18   11   19 1
  19   11   20 1
  20   12   13 1
  21   12   21 1
  22   12   22 1
  23   13   23 1
  24   13   24 1
  25   13   25 1

#	End of record

