#	Name: ASD08170284
#	Creating user name:	WinNT
#	Creation time:	15. 06. 2019 21:17

#	Modifying user name:	WinNT
#	Modification time:	15. 06. 2019 21:17

#	Program:	/corina/corina34_cracker 3.40 0067  02.08.2006

@<TRIPOS>MOLECULE
ASD08170284
  98  101    0    0    0
SMALL
NO_CHARGES


@<TRIPOS>ATOM
   1 C1            -0.0162     1.3436     0.0094 C.2     
   2 N2             0.0021    -0.0041     0.0020 N.am    
   3 C3             1.2158    -0.6830    -0.0132 C.2     
   4 S4             1.4076    -2.3853    -0.0242 S.3     
   5 C5             3.1580    -2.1679    -0.0404 C.2     
   6 C6             4.1900    -3.2660    -0.0570 C.3     
   7 C7             5.9649    -5.1406     2.7999 C.3     
   8 C8             6.9968    -6.2387     2.7833 C.2     
   9 S9             6.6713    -7.9723     2.7767 S.3     
  10 C10            8.3583    -8.2694     2.7582 C.2     
  11 N11            2.3916    -0.1314    -0.0272 N.2     
  12 N12            3.3971    -0.8949    -0.0360 N.2     
  13 N13            8.2821    -6.0790     2.7658 N.2     
  14 N14            8.9817    -7.1299     2.7585 N.2     
  15 O15            1.0258     1.9642     0.0028 O.2     
  16 C16           -1.3314     2.0792     0.0197 C.3     
  17 C17            4.5536    -3.6458     1.3798 C.3     
  18 C18            5.6013    -4.7607     1.3631 C.3     
  19 N19            8.9606    -9.5229     2.7455 N.am    
  20 C20           10.3044    -9.6248     2.7315 C.2     
  21 C21           10.9570   -10.9831     2.7177 C.3     
  22 O22           10.9885    -8.6233     2.7299 O.2     
  23 C23           12.4780   -10.8180     2.7033 C.3     
  24 C24           -1.0722     3.5871     0.0266 C.3     
  25 C25           13.1421   -12.1923     2.8151 C.3     
  26 C26           14.6633   -12.0257     2.8338 C.3     
  27 C27           15.1178   -11.3741     1.5240 C.3     
  28 N28           14.3756   -10.1199     1.3372 N.am    
  29 C29           12.9078   -10.1528     1.3920 C.3     
  30 C30           -0.3904     3.9948    -1.2832 C.3     
  31 N31           -0.2668     5.4585    -1.3164 N.am    
  32 C32           -1.4713     6.2740    -1.1091 C.3     
  33 C33           -2.1410     5.8408     0.1988 C.3     
  34 C34           -2.4019     4.3333     0.1587 C.3     
  35 O35            1.0274     7.3844    -1.5603 O.3     
  36 C36            0.9288     6.0419    -1.5324 C.2     
  37 C37            2.3462     7.9436    -1.7979 C.3     
  38 C38            2.8662     7.4649    -3.1549 C.3     
  39 C39            2.2605     9.4712    -1.7946 C.3     
  40 C40            3.3014     7.4840    -0.6946 C.3     
  41 O41            1.9176     5.3564    -1.7020 O.2     
  42 C42           15.0290    -8.9613     1.1198 C.2     
  43 O43           14.4037    -7.9307     0.9669 O.2     
  44 O44           16.3744    -8.9458     1.0721 O.3     
  45 C45           17.0108    -7.6626     0.8342 C.3     
  46 C46           16.6278    -6.6887     1.9503 C.3     
  47 C47           18.5300    -7.8428     0.8137 C.3     
  48 C48           16.5453    -7.1041    -0.5120 C.3     
  49 H49           -0.8313    -0.5005     0.0073 H       
  50 H50            3.7851    -4.1373    -0.5717 H       
  51 H51            5.0822    -2.9183    -0.5777 H       
  52 H52            5.0727    -5.4882     3.3206 H       
  53 H53            6.3698    -4.2692     3.3146 H       
  54 H54           -1.9035     1.8130    -0.8691 H       
  55 H55           -1.8951     1.8033     0.9108 H       
  56 H56            4.9585    -2.7745     1.8946 H       
  57 H57            3.6614    -3.9935     1.9006 H       
  58 H58            6.4935    -4.4131     0.8423 H       
  59 H59            5.1964    -5.6320     0.8483 H       
  60 H60            8.4135   -10.3239     2.7467 H       
  61 H61           10.6602   -11.5378     3.6077 H       
  62 H62           10.6423   -11.5284     1.8279 H       
  63 H63           12.7845   -10.1963     3.5446 H       
  64 H64           -0.4267     3.8414     0.8673 H       
  65 H65           12.8186   -12.6781     3.7356 H       
  66 H66           12.8544   -12.8051     1.9608 H       
  67 H67           14.9496   -11.3925     3.6736 H       
  68 H68           15.1350   -13.0028     2.9370 H       
  69 H69           16.1860   -11.1629     1.5723 H       
  70 H70           14.9136   -12.0470     0.6911 H       
  71 H71           12.5234   -10.7260     0.5483 H       
  72 H72           12.5178    -9.1356     1.3533 H       
  73 H73            0.6003     3.5432    -1.3354 H       
  74 H74           -0.9920     3.6596    -2.1281 H       
  75 H75           -1.1938     7.3262    -1.0465 H       
  76 H76           -2.1610     6.1247    -1.9398 H       
  77 H77           -1.4857     6.0744     1.0378 H       
  78 H78           -3.0863     6.3706     0.3163 H       
  79 H79           -3.0371     4.0973    -0.6951 H       
  80 H80           -2.9007     4.0265     1.0780 H       
  81 H81            2.1857     7.7924    -3.9408 H       
  82 H82            3.8562     7.8847    -3.3332 H       
  83 H83            2.9272     6.3766    -3.1572 H       
  84 H84            1.8901     9.8122    -0.8278 H       
  85 H85            3.2505     9.8910    -1.9729 H       
  86 H86            1.5800     9.7987    -2.5805 H       
  87 H87            3.3625     6.3957    -0.6970 H       
  88 H88            4.2914     7.9038    -0.8730 H       
  89 H89            2.9310     7.8250     0.2721 H       
  90 H90           16.9595    -7.0865     2.9094 H       
  91 H91           17.1056    -5.7254     1.7718 H       
  92 H92           15.5455    -6.5603     1.9650 H       
  93 H93           18.8029    -8.5366     0.0186 H       
  94 H94           19.0078    -6.8795     0.6352 H       
  95 H95           18.8617    -8.2407     1.7728 H       
  96 H96           15.4630    -6.9758    -0.4973 H       
  97 H97           17.0230    -6.1408    -0.6905 H       
  98 H98           16.8181    -7.7980    -1.3071 H       
@<TRIPOS>BOND
   1    1    2 am
   2    1   15 2
   3    1   16 1
   4    2    3 1
   5    2   49 1
   6    3    4 1
   7    3   11 2
   8    4    5 1
   9    5    6 1
  10    5   12 2
  11    6   17 1
  12    6   50 1
  13    6   51 1
  14    7    8 1
  15    7   18 1
  16    7   52 1
  17    7   53 1
  18    8    9 1
  19    8   13 2
  20    9   10 1
  21   10   19 1
  22   10   14 2
  23   11   12 1
  24   13   14 1
  25   16   24 1
  26   16   54 1
  27   16   55 1
  28   17   18 1
  29   17   56 1
  30   17   57 1
  31   18   58 1
  32   18   59 1
  33   19   20 am
  34   19   60 1
  35   20   21 1
  36   20   22 2
  37   21   23 1
  38   21   61 1
  39   21   62 1
  40   23   25 1
  41   23   29 1
  42   23   63 1
  43   24   30 1
  44   24   34 1
  45   24   64 1
  46   25   26 1
  47   25   65 1
  48   25   66 1
  49   26   27 1
  50   26   67 1
  51   26   68 1
  52   27   28 1
  53   27   69 1
  54   27   70 1
  55   28   29 1
  56   28   42 am
  57   29   71 1
  58   29   72 1
  59   30   31 1
  60   30   73 1
  61   30   74 1
  62   31   32 1
  63   31   36 am
  64   32   33 1
  65   32   75 1
  66   32   76 1
  67   33   34 1
  68   33   77 1
  69   33   78 1
  70   34   79 1
  71   34   80 1
  72   35   36 1
  73   35   37 1
  74   36   41 2
  75   37   38 1
  76   37   39 1
  77   37   40 1
  78   38   81 1
  79   38   82 1
  80   38   83 1
  81   39   84 1
  82   39   85 1
  83   39   86 1
  84   40   87 1
  85   40   88 1
  86   40   89 1
  87   42   43 2
  88   42   44 1
  89   44   45 1
  90   45   46 1
  91   45   47 1
  92   45   48 1
  93   46   90 1
  94   46   91 1
  95   46   92 1
  96   47   93 1
  97   47   94 1
  98   47   95 1
  99   48   96 1
 100   48   97 1
 101   48   98 1

#	End of record

