#	Name: ASD03240067
#	Creating user name:	WinNT
#	Creation time:	15. 06. 2019 20:34

#	Modifying user name:	WinNT
#	Modification time:	15. 06. 2019 20:34

#	Program:	/corina/corina34_cracker 3.40 0067  02.08.2006

@<TRIPOS>MOLECULE
ASD03240067
  69   75    0    0    0
SMALL
NO_CHARGES


@<TRIPOS>ATOM
   1 C1            -0.0171     1.4131     0.0098 C.ar    
   2 C2             0.0021    -0.0041     0.0020 C.ar    
   3 C3             1.2051     2.1128     0.0019 C.ar    
   4 C4             2.3786     1.3793    -0.0133 C.ar    
   5 C5             2.3165    -0.0339    -0.0204 C.ar    
   6 N6             1.1608    -0.6662    -0.0123 N.ar    
   7 C7             3.5740    -0.8172    -0.0367 C.ar    
   8 C8             3.6904     2.0692    -0.0226 C.ar    
   9 C9             3.9400     3.0856    -0.9436 C.ar    
  10 C10            5.1633     3.7243    -0.9476 C.ar    
  11 C11            6.1411     3.3576    -0.0403 C.ar    
  12 C12            5.8993     2.3494     0.8756 C.ar    
  13 C13            4.6775     1.7081     0.8934 C.ar    
  14 C14            3.6525    -2.0296     0.6478 C.ar    
  15 C15            4.8263    -2.7548     0.6285 C.ar    
  16 C16            5.9239    -2.2811    -0.0676 C.ar    
  17 C17            5.8521    -1.0790    -0.7485 C.ar    
  18 C18            4.6820    -0.3477    -0.7414 C.ar    
  19 C19            7.2032    -3.0776    -0.0838 C.3     
  20 N20            7.1882    -4.0049    -1.2230 N.3     
  21 C21            8.5051    -4.6264    -1.4130 C.3     
  22 C22            8.4929    -5.4705    -2.6895 C.3     
  23 C23            7.4113    -6.5480    -2.5726 C.3     
  24 C24            6.0573    -5.8765    -2.3269 C.3     
  25 C25            6.1401    -5.0206    -1.0610 C.3     
  26 C26            7.3539    -7.3445    -3.8506 C.2     
  27 N27            7.5602    -8.6538    -3.9518 N.2     
  28 C28            7.4342    -9.0291    -5.2082 C.2     
  29 N29            7.1381    -7.9310    -5.9402 N.pl3   
  30 N30            7.0875    -6.8579    -5.0357 N.2     
  31 C31           -1.2257    -0.6966     0.0101 C.ar    
  32 C32           -2.3799     0.0325     0.0251 C.ar    
  33 C33           -2.3247     1.4250     0.0315 C.ar    
  34 N34           -1.1817     2.0673     0.0299 N.ar    
  35 C35            7.5900   -10.4068    -5.7265 C.ar    
  36 N36            7.4345   -10.6439    -7.0234 N.ar    
  37 C37            7.5646   -11.8550    -7.5242 C.ar    
  38 C38            7.8697   -12.9313    -6.7105 C.ar    
  39 C39            8.0408   -12.7282    -5.3485 C.ar    
  40 C40            7.9045   -11.4443    -4.8496 C.ar    
  41 H41            1.2260     3.1926     0.0072 H       
  42 H42            3.1777     3.3723    -1.6529 H       
  43 H43            5.3578     4.5119    -1.6606 H       
  44 H44            7.0971     3.8600    -0.0474 H       
  45 H45            6.6665     2.0671     1.5813 H       
  46 H46            4.4898     0.9212     1.6089 H       
  47 H47            2.7964    -2.4000     1.1922 H       
  48 H48            4.8883    -3.6939     1.1583 H       
  49 H49            6.7123    -0.7143    -1.2903 H       
  50 H50            4.6271     0.5906    -1.2733 H       
  51 H51            8.0518    -2.4000    -0.1780 H       
  52 H52            7.2909    -3.6430     0.8439 H       
  53 H53            9.2645    -3.8491    -1.4988 H       
  54 H54            8.7327    -5.2635    -0.5584 H       
  55 H55            8.2789    -4.8315    -3.5462 H       
  56 H56            9.4656    -5.9441    -2.8219 H       
  57 H57            7.6458    -7.2107    -1.7396 H       
  58 H58            5.8051    -5.2439    -3.1780 H       
  59 H59            5.2900    -6.6402    -2.2003 H       
  60 H60            6.3788    -5.6560    -0.2080 H       
  61 H61            5.1819    -4.5298    -0.8911 H       
  62 H62            6.9872    -7.8930    -6.8977 H       
  63 H63           -1.2527    -1.7763     0.0043 H       
  64 H64           -3.3359    -0.4699     0.0316 H       
  65 H65           -3.2458     1.9888     0.0430 H       
  66 H66            7.4308   -12.0101    -8.5846 H       
  67 H67            7.9734   -13.9205    -7.1314 H       
  68 H68            8.2791   -13.5528    -4.6930 H       
  69 H69            8.0313   -11.2503    -3.7948 H       
@<TRIPOS>BOND
   1    1    2 ar
   2    1    3 ar
   3    1   34 ar
   4    2   31 ar
   5    2    6 ar
   6    3    4 ar
   7    3   41 1
   8    4    5 ar
   9    4    8 1
  10    5    6 ar
  11    5    7 1
  12    7   14 ar
  13    7   18 ar
  14    8    9 ar
  15    8   13 ar
  16    9   10 ar
  17    9   42 1
  18   10   11 ar
  19   10   43 1
  20   11   12 ar
  21   11   44 1
  22   12   13 ar
  23   12   45 1
  24   13   46 1
  25   14   15 ar
  26   14   47 1
  27   15   16 ar
  28   15   48 1
  29   16   17 ar
  30   16   19 1
  31   17   18 ar
  32   17   49 1
  33   18   50 1
  34   19   20 1
  35   19   51 1
  36   19   52 1
  37   20   21 1
  38   20   25 1
  39   21   22 1
  40   21   53 1
  41   21   54 1
  42   22   23 1
  43   22   55 1
  44   22   56 1
  45   23   24 1
  46   23   26 1
  47   23   57 1
  48   24   25 1
  49   24   58 1
  50   24   59 1
  51   25   60 1
  52   25   61 1
  53   26   27 1
  54   26   30 2
  55   27   28 2
  56   28   29 1
  57   28   35 1
  58   29   30 1
  59   29   62 1
  60   31   32 ar
  61   31   63 1
  62   32   33 ar
  63   32   64 1
  64   33   34 ar
  65   33   65 1
  66   35   36 ar
  67   35   40 ar
  68   36   37 ar
  69   37   38 ar
  70   37   66 1
  71   38   39 ar
  72   38   67 1
  73   39   40 ar
  74   39   68 1
  75   40   69 1

#	End of record

