#	Name: ASD02408434
#	Creating user name:	WinNT
#	Creation time:	15. 06. 2019 20:21

#	Modifying user name:	WinNT
#	Modification time:	15. 06. 2019 20:21

#	Program:	/corina/corina34_cracker 3.40 0067  02.08.2006

@<TRIPOS>MOLECULE
ASD02408434
  46   49    0    0    0
SMALL
NO_CHARGES


@<TRIPOS>ATOM
   1 N1            -0.0163     1.3525     0.0095 N.am    
   2 C2             0.0021    -0.0041     0.0020 C.2     
   3 N3             1.1023    -0.6986    -0.0118 N.2     
   4 C4             2.3093    -0.1135    -0.0202 C.2     
   5 C5             2.3912     1.2878    -0.0139 C.2     
   6 C6             1.1433     2.0508     0.0022 C.2     
   7 N7             3.5900    -0.5769    -0.0354 N.pl3   
   8 N8             4.4551     0.5246    -0.0384 N.2     
   9 C9             3.7576     1.6269    -0.0258 C.2     
  10 C10           -1.3126    -0.7406     0.0107 C.3     
  11 C11           -1.0526    -2.2483     0.0001 C.3     
  12 C12            3.9744    -1.9195    -0.0460 C.ar    
  13 C13            5.2095    -2.2763    -0.5700 C.ar    
  14 C14            5.5820    -3.6112    -0.5761 C.ar    
  15 C15            4.7025    -4.5464    -0.0558 C.ar    
  16 C16            3.4824    -4.1210     0.4528 C.ar    
  17 N17            3.1592    -2.8385     0.4488 N.ar    
  18 O18            1.1475     3.2691     0.0079 O.2     
  19 C19           -2.3810    -3.0133     0.1347 C.3     
  20 C20           -2.5260    -3.8720    -1.1386 C.3     
  21 C21           -1.0728    -4.0503    -1.6441 C.3     
  22 C22           -0.4368    -2.6689    -1.3504 C.3     
  23 O23            2.6150    -5.0301     0.9644 O.3     
  24 C24            1.3763    -4.5305     1.4724 C.3     
  25 C25            0.5362    -5.6940     2.0029 C.3     
  26 H26           -0.8640     1.8240     0.0161 H       
  27 H27            4.1598     2.6292    -0.0253 H       
  28 H28           -1.8722    -0.4747     0.9075 H       
  29 H29           -1.8892    -0.4652    -0.8724 H       
  30 H30           -0.3825    -2.5171     0.8167 H       
  31 H31            5.8722    -1.5223    -0.9686 H       
  32 H32            6.5370    -3.9157    -0.9782 H       
  33 H33            4.9627    -5.5945    -0.0461 H       
  34 H34           -2.3552    -3.6539     1.0162 H       
  35 H35           -3.2109    -2.3104     0.2076 H       
  36 H36           -2.9677    -4.8390    -0.8983 H       
  37 H37           -3.1278    -3.3512    -1.8835 H       
  38 H38           -0.5636    -4.8364    -1.0865 H       
  39 H39           -1.0590    -4.2625    -2.7131 H       
  40 H40           -0.7012    -1.9538    -2.1294 H       
  41 H41            0.6461    -2.7580    -1.2646 H       
  42 H42            1.5727    -3.8260     2.2806 H       
  43 H43            0.8335    -4.0249     0.6737 H       
  44 H44            0.3397    -6.3984     1.1946 H       
  45 H45            1.0790    -6.1995     2.8015 H       
  46 H46           -0.4087    -5.3129     2.3903 H       
@<TRIPOS>BOND
   1    1    2 1
   2    1    6 am
   3    1   26 1
   4    2    3 2
   5    2   10 1
   6    3    4 1
   7    4    5 2
   8    4    7 1
   9    5    6 1
  10    5    9 1
  11    6   18 2
  12    7    8 1
  13    7   12 1
  14    8    9 2
  15    9   27 1
  16   10   11 1
  17   10   28 1
  18   10   29 1
  19   11   19 1
  20   11   22 1
  21   11   30 1
  22   12   13 ar
  23   12   17 ar
  24   13   14 ar
  25   13   31 1
  26   14   15 ar
  27   14   32 1
  28   15   16 ar
  29   15   33 1
  30   16   17 ar
  31   16   23 1
  32   19   20 1
  33   19   34 1
  34   19   35 1
  35   20   21 1
  36   20   36 1
  37   20   37 1
  38   21   22 1
  39   21   38 1
  40   21   39 1
  41   22   40 1
  42   22   41 1
  43   23   24 1
  44   24   25 1
  45   24   42 1
  46   24   43 1
  47   25   44 1
  48   25   45 1
  49   25   46 1

#	End of record

