#	Name: ASD01121011
#	Creating user name:	WinNT
#	Creation time:	15. 06. 2019 18:59

#	Modifying user name:	WinNT
#	Modification time:	15. 06. 2019 18:59

#	Program:	/corina/corina34_cracker 3.40 0067  02.08.2006

@<TRIPOS>MOLECULE
ASD01121011
  42   43    0    0    0
SMALL
NO_CHARGES


@<TRIPOS>ATOM
   1 C1            -0.0400     1.3370    -0.0040 C.ar    
   2 C2             1.1027     2.1211    -0.0024 C.ar    
   3 C3             0.0866    -0.0471    -0.0157 C.ar    
   4 Br4            0.9796     4.0080     0.0140 Br      
   5 C5             2.3388     1.4916    -0.0127 C.ar    
   6 N6             1.2825    -0.6165    -0.0249 N.ar    
   7 C7             2.3938     0.1046    -0.0242 C.ar    
   8 N8             3.6315    -0.5363    -0.0350 N.am    
   9 C9             3.6959    -1.8793     0.0593 C.2     
  10 O10            2.6830    -2.5246     0.2485 O.2     
  11 N11            4.8830    -2.5068    -0.0561 N.am    
  12 S12            4.9621    -4.1568     0.0598 S.o2    
  13 C13            4.0755    -4.8191    -1.3113 C.2     
  14 O14            6.3250    -4.5080    -0.1362 O.2     
  15 O15            4.2272    -4.5131     1.2228 O.2     
  16 S16            2.3589    -5.2025    -1.3191 S.3     
  17 C17            4.6022    -5.1010    -2.5039 C.2     
  18 C18            2.4577    -5.7475    -2.9884 C.2     
  19 C19            3.7097    -5.6146    -3.4290 C.2     
  20 C20            1.3034    -6.2787    -3.7986 C.3     
  21 C21            4.1217    -5.9962    -4.8275 C.3     
  22 C22            1.2090    -7.7951    -3.6184 C.3     
  23 O23            0.1144    -8.2989    -4.3867 O.3     
  24 C24           -0.0627    -9.7134    -4.2879 C.3     
  25 H25            4.4465    -0.0158    -0.1105 H       
  26 H26            5.6911    -1.9919    -0.2071 H       
  27 N27           -1.0537    -0.8420    -0.0173 N.pl3   
  28 H28           -1.0175     1.7961     0.0083 H       
  29 H29            3.2483     2.0742    -0.0122 H       
  30 H30            5.6458    -4.9404    -2.7306 H       
  31 H31            0.3774    -5.8142    -3.4598 H       
  32 H32            1.4618    -6.0472    -4.8519 H       
  33 H33            4.0064    -5.1366    -5.4876 H       
  34 H34            5.1641    -6.3150    -4.8249 H       
  35 H35            3.4928    -6.8131    -5.1814 H       
  36 H36            2.1350    -8.2597    -3.9573 H       
  37 H37            1.0506    -8.0267    -2.5651 H       
  38 H38            0.8369   -10.2178    -4.6407 H       
  39 H39           -0.2475    -9.9848    -3.2485 H       
  40 H40           -0.9127   -10.0167    -4.8992 H       
  41 H41           -1.9319    -0.4303    -0.0103 H       
  42 H42           -0.9711    -1.8085    -0.0254 H       
@<TRIPOS>BOND
   1    1    2 ar
   2    1    3 ar
   3    1   28 1
   4    2    4 1
   5    2    5 ar
   6    3    6 ar
   7    3   27 1
   8    5    7 ar
   9    5   29 1
  10    6    7 ar
  11    7    8 1
  12    8   25 1
  13    8    9 am
  14    9   10 2
  15    9   11 am
  16   11   26 1
  17   11   12 am
  18   12   13 1
  19   12   15 2
  20   12   14 2
  21   13   16 1
  22   13   17 2
  23   16   18 1
  24   17   19 1
  25   17   30 1
  26   18   19 2
  27   18   20 1
  28   19   21 1
  29   20   22 1
  30   20   31 1
  31   20   32 1
  32   21   33 1
  33   21   34 1
  34   21   35 1
  35   22   23 1
  36   22   36 1
  37   22   37 1
  38   23   24 1
  39   24   38 1
  40   24   39 1
  41   24   40 1
  42   27   41 1
  43   27   42 1

#	End of record

