#	Name: ASD06600006
#	Creating user name:	WinNT
#	Creation time:	15. 06. 2019 21:06

#	Modifying user name:	WinNT
#	Modification time:	15. 06. 2019 21:06

#	Program:	/corina/corina34_cracker 3.40 0067  02.08.2006

@<TRIPOS>MOLECULE
ASD06600006
 307  308    0    0    0
SMALL
NO_CHARGES


@<TRIPOS>ATOM
   1 C1            -5.8607    12.5973     0.5613 C.2     
   2 O2            -5.3486    11.4984     0.5935 O.2     
   3 N3            -3.6446    13.5806     0.4545 N.am    
   4 C4            -5.0549    13.7914     0.1186 C.3     
   5 C5            -5.1976    13.9705    -1.3941 C.3     
   6 C6            -6.6504    14.3109    -1.7326 C.3     
   7 C7            -7.0137    15.6640    -1.1177 C.3     
   8 C8            -6.8174    14.3798    -3.2519 C.3     
   9 C9            -9.4194    11.8898     1.0060 C.2     
  10 O10           -9.7450    12.9859     0.6019 O.2     
  11 N11           -7.1519    12.7497     0.9161 N.am    
  12 C12           -7.9648    11.5759     1.2442 C.3     
  13 C13           -7.7570    11.2064     2.7143 C.3     
  14 C14           -6.3072    10.7677     2.9299 C.3     
  15 C15           -6.1025    10.4037     4.3779 C.2     
  16 O16           -7.0219    10.4867     5.1574 O.2     
  17 O17           -4.8988     9.9874     4.8015 O.3     
  18 C18          -12.6268    10.3664     1.8749 C.2     
  19 O19          -12.1058     9.5564     2.6120 O.2     
  20 N20          -10.3585    10.9523     1.2419 N.am    
  21 C21          -11.7725    11.2573     1.0103 C.3     
  22 C22          -12.1117    11.0164    -0.4621 C.3     
  23 C23          -11.3360    12.0069    -1.3328 C.3     
  24 C24          -11.6752    11.7660    -2.8051 C.3     
  25 N25          -10.9325    12.7144    -3.6389 N.pl3   
  26 C26          -11.0773    12.6880    -5.0058 C.2     
  27 N27          -11.8755    11.8192    -5.5599 N.2     
  28 N28          -10.3803    13.5781    -5.7882 N.pl3   
  29 C29          -16.1618     9.4505     2.0419 C.2     
  30 O30          -16.4137    10.0097     0.9956 O.2     
  31 N31          -13.9698    10.4698     1.8290 N.am    
  32 C32          -14.8003     9.6037     2.6695 C.3     
  33 C33          -14.9463    10.2287     4.0583 C.3     
  34 C34          -13.6004    10.2692     4.7350 C.2     
  35 C35          -13.0036    11.3634     5.2450 C.2     
  36 N36          -11.8038    10.9553     5.7624 N.pl3   
  37 C37          -11.7092     9.6249     5.5505 C.2     
  38 N38          -12.7894     9.2206     4.9400 N.2     
  39 C39          -19.4339     8.2114     3.1008 C.2     
  40 O40          -19.0832     8.1093     4.2572 O.2     
  41 N41          -17.0996     8.6920     2.6434 N.am    
  42 C42          -18.4232     8.5431     2.0333 C.3     
  43 C43          -18.3844     7.4158     0.9996 C.3     
  44 C44          -17.4516     7.8080    -0.1480 C.3     
  45 C45          -17.4128     6.6806    -1.1816 C.3     
  46 N46          -16.5196     7.0561    -2.2805 N.pl3   
  47 C47          -16.3251     6.1939    -3.3335 C.2     
  48 N48          -16.9355     5.0424    -3.3542 N.2     
  49 N49          -15.4869     6.5463    -4.3647 N.pl3   
  50 C50          -22.8714     6.9709     3.1893 C.2     
  51 O51          -22.8777     6.7395     1.9987 O.2     
  52 N52          -20.7276     8.0280     2.7702 N.am    
  53 C53          -21.7101     7.7055     3.8079 C.3     
  54 C54          -22.2110     8.9981     4.4555 C.3     
  55 C55          -21.0558     9.6813     5.1901 C.3     
  56 C56          -21.5491    10.9544     5.8280 C.2     
  57 O57          -22.7103    11.2830     5.7068 O.2     
  58 N58          -20.7000    11.7280     6.5330 N.am    
  59 C59          -26.2617     6.0562     4.2054 C.2     
  60 O60          -26.2011     6.7286     5.2129 O.2     
  61 N61          -23.9030     6.5710     3.9589 N.am    
  62 C62          -25.0319     5.8568     3.3575 C.3     
  63 C63          -24.7057     4.3643     3.2751 C.3     
  64 C64          -23.3892     4.1709     2.5198 C.3     
  65 O65          -24.5805     3.8305     4.5948 O.3     
  66 C66          -29.5751     4.5319     4.4525 C.2     
  67 O67          -29.2829     3.6390     3.6855 O.2     
  68 N68          -27.4288     5.4872     3.8441 N.am    
  69 C69          -28.6243     5.6810     4.6685 C.3     
  70 C70          -29.3093     6.9909     4.2735 C.3     
  71 C71          -28.3911     8.1679     4.6090 C.3     
  72 C72          -29.0761     9.4777     4.2140 C.3     
  73 N73          -28.1970    10.6047     4.5352 N.pl3   
  74 C74          -28.6024    11.8909     4.2677 C.2     
  75 N75          -29.7690    12.1075     3.7282 N.2     
  76 N76          -27.7774    12.9485     4.5691 N.pl3   
  77 C77          -33.0798     3.8248     5.2140 C.2     
  78 O78          -33.2888     4.9632     5.5763 O.2     
  79 N79          -30.7501     4.4965     5.1116 N.am    
  80 C80          -31.6744     3.3795     4.9017 C.3     
  81 C81          -31.2904     2.2197     5.8228 C.3     
  82 O82          -31.4744     2.6119     7.1845 O.3     
  83 C83          -36.3026     2.1951     5.7800 C.2     
  84 O84          -35.8035     1.0899     5.7993 O.2     
  85 N85          -34.1045     2.9580     5.0907 N.am    
  86 C86          -35.4707     3.3910     5.3943 C.3     
  87 C87          -36.0800     4.0595     4.1603 C.3     
  88 O88          -36.2126     3.0961     3.1133 O.3     
  89 C89          -39.8627     1.4782     6.1982 C.2     
  90 O90          -40.2145     2.6035     5.9137 O.2     
  91 N91          -37.6014     2.3536     6.1034 N.am    
  92 C92          -38.4101     1.1911     6.4783 C.3     
  93 C93          -38.2259     0.9010     7.9692 C.3     
  94 C94          -36.7506     0.6127     8.2542 C.3     
  95 O95          -38.6453     2.0353     8.7305 O.3     
  96 C96          -43.0181    -0.2745     6.7769 C.2     
  97 O97          -42.4699    -1.1836     7.3634 O.2     
  98 N98          -40.7709     0.4846     6.2638 N.am    
  99 C99          -42.1945     0.7802     6.0839 C.3     
 100 C100         -42.5288     0.7890     4.5909 C.3     
 101 C101         -41.7870     1.9403     3.9089 C.3     
 102 C102         -42.1163     1.9490     2.4384 C.2     
 103 O103         -42.8673     1.1194     1.9826 O.2     
 104 O104         -41.5753     2.8782     1.6349 O.3     
 105 C105         -46.5217    -1.3174     6.7693 C.2     
 106 O106         -46.8874    -0.4431     6.0125 O.2     
 107 N107         -44.3638    -0.2074     6.7450 N.am    
 108 C108         -45.1644    -1.2328     7.4187 C.3     
 109 C109         -45.3274    -0.8644     8.8947 C.3     
 110 C110         -43.9497    -0.7828     9.5552 C.3     
 111 O111         -45.9819     0.4015     9.0003 O.3     
 112 C112         -49.5569    -3.3207     7.1401 C.2     
 113 O113         -49.2160    -3.7375     8.2268 O.2     
 114 N114         -47.3291    -2.3647     7.0295 N.am    
 115 C115         -48.5967    -2.5090     6.3093 C.3     
 116 C116         -48.3484    -3.2194     4.9771 C.3     
 117 C117         -47.4867    -2.3506     4.0975 C.ar    
 118 C118         -46.1100    -2.4640     4.1500 C.ar    
 119 C119         -45.3196    -1.6671     3.3431 C.ar    
 120 C120         -45.9059    -0.7571     2.4834 C.ar    
 121 C121         -47.2826    -0.6443     2.4303 C.ar    
 122 C122         -48.0732    -1.4443     3.2340 C.ar    
 123 C123         -51.4833    -5.8399     7.2434 C.2     
 124 O124         -50.6179    -6.1907     6.4766 O.2     
 125 N125         -50.7945    -3.5833     6.6755 N.am    
 126 C126         -51.7280    -4.3723     7.4831 C.3     
 127 C127         -53.1645    -4.0237     7.0885 C.3     
 128 C128         -53.4569    -2.5688     7.4609 C.3     
 129 C129         -54.8370    -2.1742     6.9312 C.3     
 130 C130         -53.4323    -2.4171     8.9831 C.3     
 131 O131         -52.2266    -6.7573     7.8818 O.3     
 132 C132          -2.8395    14.6383     0.6769 C.2     
 133 O133          -3.2578    15.7644     0.5104 O.2     
 134 C134          13.5086    22.3570     5.6117 C.3     
 135 C135          12.0669    22.5769     5.1491 C.3     
 136 C136          11.3760    21.2233     4.9718 C.3     
 137 C137           9.9343    21.4433     4.5092 C.3     
 138 C138           9.2434    20.0897     4.3320 C.3     
 139 C139           7.8017    20.3097     3.8694 C.3     
 140 C140           7.1109    18.9561     3.6921 C.3     
 141 C141           5.6691    19.1761     3.2295 C.3     
 142 C142           4.9783    17.8225     3.0522 C.3     
 143 C143           3.5366    18.0424     2.5896 C.3     
 144 C144           2.8457    16.6889     2.4123 C.3     
 145 C145           1.4040    16.9088     1.9497 C.3     
 146 C146           0.7131    15.5552     1.7724 C.3     
 147 C147          -0.7286    15.7752     1.3099 C.3     
 148 C148          -1.4194    14.4216     1.1326 C.3     
 149 H149          -3.2903    12.6798     0.5168 H       
 150 H150          -5.4198    14.6843     0.6262 H       
 151 H151          -4.5478    14.7798    -1.7271 H       
 152 H152          -4.9142    13.0464    -1.8978 H       
 153 H153          -7.3075    13.5404    -1.3294 H       
 154 H154          -8.0618    15.8851    -1.3197 H       
 155 H155          -6.8508    15.6291    -0.0405 H       
 156 H156          -6.3875    16.4417    -1.5549 H       
 157 H157          -6.5586    13.4158    -3.6899 H       
 158 H158          -7.8524    14.6222    -3.4930 H       
 159 H159          -6.1603    15.1503    -3.6551 H       
 160 H160          -7.5430    13.6366     0.9542 H       
 161 H161          -7.6657    10.7389     0.6134 H       
 162 H162          -7.9715    12.0724     3.3405 H       
 163 H163          -8.4274    10.3896     2.9819 H       
 164 H164          -6.0927     9.9017     2.3037 H       
 165 H165          -5.6368    11.5845     2.6623 H       
 166 H166          -4.8160     9.7652     5.7390 H       
 167 H167         -10.0981    10.0755     1.5651 H       
 168 H168         -11.9651    12.3004     1.2615 H       
 169 H169         -11.8362     9.9981    -0.7365 H       
 170 H170         -13.1815    11.1574    -0.6163 H       
 171 H171         -11.6116    13.0252    -1.0584 H       
 172 H172         -10.2662    11.8659    -1.1786 H       
 173 H173         -11.3997    10.7477    -3.0795 H       
 174 H174         -12.7450    11.9070    -2.9593 H       
 175 H175         -10.3385    13.3609    -3.2265 H       
 176 H176         -11.9777    11.8006    -6.5244 H       
 177 H177          -9.7864    14.2246    -5.3758 H       
 178 H178         -10.4825    13.5595    -6.7526 H       
 179 H179         -14.3865    11.1176     1.2395 H       
 180 H180         -14.3294     8.6247     2.7593 H       
 181 H181         -15.3349    11.2425     3.9615 H       
 182 H182         -15.6352     9.6310     4.6552 H       
 183 H183         -13.3959    12.3696     5.2453 H       
 184 H184         -11.1447    11.5168     6.1997 H       
 185 H185         -10.8789     8.9986     5.8416 H       
 186 H186         -16.8982     8.2448     3.4802 H       
 187 H187         -18.7046     9.4755     1.5437 H       
 188 H188         -18.0177     6.5037     1.4704 H       
 189 H189         -19.3881     7.2454     0.6100 H       
 190 H190         -17.8183     8.7201    -0.6187 H       
 191 H191         -16.4480     7.9783     0.2417 H       
 192 H192         -17.0461     5.7685    -0.7109 H       
 193 H193         -18.4164     6.5103    -1.5713 H       
 194 H194         -16.0654     7.9131    -2.2650 H       
 195 H195         -16.7983     4.4341    -4.0972 H       
 196 H196         -15.0327     7.4033    -4.3493 H       
 197 H197         -15.3497     5.9380    -5.1077 H       
 198 H198         -21.0081     8.1096     1.8453 H       
 199 H199         -21.2444     7.0760     4.5662 H       
 200 H200         -22.5963     9.6651     3.6844 H       
 201 H201         -23.0054     8.7651     5.1645 H       
 202 H202         -20.6705     9.0142     5.9613 H       
 203 H203         -20.2614     9.9143     4.4811 H       
 204 H204         -19.7713    11.4652     6.6298 H       
 205 H205         -21.0175    12.5474     6.9435 H       
 206 H206         -23.8979     6.7560     4.9111 H       
 207 H207         -25.2148     6.2446     2.3553 H       
 208 H208         -25.5066     3.8458     2.7480 H       
 209 H209         -22.5883     4.6893     3.0469 H       
 210 H210         -23.1568     3.1076     2.4611 H       
 211 H211         -23.4847     4.5780     1.5132 H       
 212 H212         -23.8849     4.2459     5.1227 H       
 213 H213         -27.4773     4.9494     3.0383 H       
 214 H214         -28.3381     5.7232     5.7194 H       
 215 H215         -29.5157     6.9846     3.2032 H       
 216 H216         -30.2450     7.0918     4.8234 H       
 217 H217         -28.1847     8.1741     5.6792 H       
 218 H218         -27.4554     8.0670     4.0591 H       
 219 H219         -29.2825     9.4715     3.1437 H       
 220 H220         -30.0118     9.5786     4.7639 H       
 221 H221         -27.3288    10.4435     4.9367 H       
 222 H222         -30.0551    13.0149     3.5394 H       
 223 H223         -26.9092    12.7873     4.9706 H       
 224 H224         -28.0635    13.8559     4.3803 H       
 225 H225         -30.9838     5.2107     5.7251 H       
 226 H226         -31.6192     3.0524     3.8634 H       
 227 H227         -31.9212     1.3580     5.6044 H       
 228 H228         -30.2455     1.9560     5.6587 H       
 229 H229         -31.2497     1.9239     7.8258 H       
 230 H230         -33.9373     2.0475     4.8010 H       
 231 H231         -35.4515     4.1018     6.2204 H       
 232 H232         -37.0619     4.4603     4.4118 H       
 233 H233         -35.4309     4.8699     3.8284 H       
 234 H234         -36.5932     3.4509     2.2982 H       
 235 H235         -38.0006     3.2375     6.0879 H       
 236 H236         -38.0924     0.3250     5.8977 H       
 237 H237         -38.8258     0.0346     8.2477 H       
 238 H238         -36.1555     1.4944     8.0161 H       
 239 H239         -36.6259     0.3641     9.3081 H       
 240 H240         -36.4192    -0.2256     7.6415 H       
 241 H241         -39.5726     2.2761     8.5991 H       
 242 H242         -40.4820    -0.4264     6.4301 H       
 243 H243         -42.4197     1.7568     6.5124 H       
 244 H244         -42.2215    -0.1565     4.1442 H       
 245 H245         -43.6029     0.9207     4.4599 H       
 246 H246         -42.0943     2.8858     4.3557 H       
 247 H247         -40.7129     1.8087     4.0399 H       
 248 H248         -41.8163     2.8435     0.6991 H       
 249 H249         -44.8022     0.5197     6.2760 H       
 250 H250         -44.6624    -2.1969     7.3382 H       
 251 H251         -45.9258    -1.6256     9.3953 H       
 252 H252         -43.3936     0.0544     9.1334 H       
 253 H253         -44.0695    -0.6357    10.6285 H       
 254 H254         -43.4046    -1.7092     9.3740 H       
 255 H255         -46.8627     0.4234     8.6018 H       
 256 H256         -47.0710    -3.0229     7.6936 H       
 257 H257         -49.0222    -1.5232     6.1215 H       
 258 H258         -47.8419    -4.1672     5.1597 H       
 259 H259         -49.3012    -3.4062     4.4818 H       
 260 H260         -45.6519    -3.1750     4.8216 H       
 261 H261         -44.2440    -1.7551     3.3846 H       
 262 H262         -45.2884    -0.1339     1.8536 H       
 263 H263         -47.7407     0.0669     1.7589 H       
 264 H264         -49.1489    -1.3589     3.1898 H       
 265 H265         -51.0671    -3.2499     5.8063 H       
 266 H266         -51.5761    -4.1463     8.5386 H       
 267 H267         -53.2882    -4.1555     6.0136 H       
 268 H268         -53.8559    -4.6800     7.6170 H       
 269 H269         -52.6994    -1.9214     7.0190 H       
 270 H270         -55.0817    -1.1673     7.2693 H       
 271 H271         -54.8288    -2.1997     5.8415 H       
 272 H272         -55.5836    -2.8746     7.3054 H       
 273 H273         -52.4491    -2.6982     9.3604 H       
 274 H274         -53.6406    -1.3806     9.2484 H       
 275 H275         -54.1897    -3.0645     9.4250 H       
 276 H276         -52.0327    -7.6862     7.6957 H       
 277 H277          14.0007    23.3213     5.7380 H       
 278 H278          13.5078    21.8223     6.5616 H       
 279 H279          14.0442    21.7707     4.8651 H       
 280 H280          11.5312    23.1632     5.8957 H       
 281 H281          12.0676    23.1116     4.1993 H       
 282 H282          11.9117    20.6370     4.2253 H       
 283 H283          11.3752    20.6886     5.9217 H       
 284 H284           9.3986    22.0296     5.2558 H       
 285 H285           9.9350    21.9780     3.5594 H       
 286 H286           9.7791    19.5034     3.5854 H       
 287 H287           9.2427    19.5550     5.2818 H       
 288 H288           7.2660    20.8960     4.6159 H       
 289 H289           7.8025    20.8444     2.9195 H       
 290 H290           7.6465    18.3698     2.9455 H       
 291 H291           7.1101    18.4214     4.6419 H       
 292 H292           5.1335    19.7624     3.9761 H       
 293 H293           5.6699    19.7108     2.2796 H       
 294 H294           5.5140    17.2362     2.3056 H       
 295 H295           4.9775    17.2878     4.0020 H       
 296 H296           3.0009    18.6288     3.3362 H       
 297 H297           3.5373    18.5771     1.6398 H       
 298 H298           3.3814    16.1025     1.6657 H       
 299 H299           2.8449    16.1542     3.3622 H       
 300 H300           0.8683    17.4951     2.6963 H       
 301 H301           1.4048    17.4435     0.9999 H       
 302 H302           1.2488    14.9689     1.0259 H       
 303 H303           0.7124    15.0205     2.7223 H       
 304 H304          -1.2643    16.3615     2.0564 H       
 305 H305          -0.7278    16.3099     0.3600 H       
 306 H306          -1.4202    13.8869     2.0824 H       
 307 H307          -0.8838    13.8353     0.3860 H       
@<TRIPOS>BOND
   1    1    2 2
   2    1    4 1
   3    1   11 am
   4    3  132 am
   5    3    4 1
   6    3  149 1
   7    4    5 1
   8    4  150 1
   9    5    6 1
  10    5  151 1
  11    5  152 1
  12    6    7 1
  13    6    8 1
  14    6  153 1
  15    7  154 1
  16    7  155 1
  17    7  156 1
  18    8  157 1
  19    8  158 1
  20    8  159 1
  21    9   10 2
  22    9   12 1
  23    9   20 am
  24   11   12 1
  25   11  160 1
  26   12   13 1
  27   12  161 1
  28   13   14 1
  29   13  162 1
  30   13  163 1
  31   14   15 1
  32   14  164 1
  33   14  165 1
  34   15   16 2
  35   15   17 1
  36   17  166 1
  37   18   19 2
  38   18   21 1
  39   18   31 am
  40   20   21 1
  41   20  167 1
  42   21   22 1
  43   21  168 1
  44   22   23 1
  45   22  169 1
  46   22  170 1
  47   23   24 1
  48   23  171 1
  49   23  172 1
  50   24   25 1
  51   24  173 1
  52   24  174 1
  53   25   26 1
  54   25  175 1
  55   26   27 2
  56   26   28 1
  57   27  176 1
  58   28  177 1
  59   28  178 1
  60   29   30 2
  61   29   32 1
  62   29   41 am
  63   31   32 1
  64   31  179 1
  65   32   33 1
  66   32  180 1
  67   33   34 1
  68   33  181 1
  69   33  182 1
  70   34   35 2
  71   34   38 1
  72   35   36 1
  73   35  183 1
  74   36   37 1
  75   36  184 1
  76   37   38 2
  77   37  185 1
  78   39   40 2
  79   39   42 1
  80   39   52 am
  81   41   42 1
  82   41  186 1
  83   42   43 1
  84   42  187 1
  85   43   44 1
  86   43  188 1
  87   43  189 1
  88   44   45 1
  89   44  190 1
  90   44  191 1
  91   45   46 1
  92   45  192 1
  93   45  193 1
  94   46   47 1
  95   46  194 1
  96   47   48 2
  97   47   49 1
  98   48  195 1
  99   49  196 1
 100   49  197 1
 101   50   51 2
 102   50   53 1
 103   50   61 am
 104   52   53 1
 105   52  198 1
 106   53   54 1
 107   53  199 1
 108   54   55 1
 109   54  200 1
 110   54  201 1
 111   55   56 1
 112   55  202 1
 113   55  203 1
 114   56   57 2
 115   56   58 am
 116   58  204 1
 117   58  205 1
 118   59   60 2
 119   59   62 1
 120   59   68 am
 121   61   62 1
 122   61  206 1
 123   62   63 1
 124   62  207 1
 125   63   64 1
 126   63   65 1
 127   63  208 1
 128   64  209 1
 129   64  210 1
 130   64  211 1
 131   65  212 1
 132   66   67 2
 133   66   69 1
 134   66   79 am
 135   68   69 1
 136   68  213 1
 137   69   70 1
 138   69  214 1
 139   70   71 1
 140   70  215 1
 141   70  216 1
 142   71   72 1
 143   71  217 1
 144   71  218 1
 145   72   73 1
 146   72  219 1
 147   72  220 1
 148   73   74 1
 149   73  221 1
 150   74   75 2
 151   74   76 1
 152   75  222 1
 153   76  223 1
 154   76  224 1
 155   77   78 2
 156   77   80 1
 157   77   85 am
 158   79   80 1
 159   79  225 1
 160   80   81 1
 161   80  226 1
 162   81   82 1
 163   81  227 1
 164   81  228 1
 165   82  229 1
 166   83   84 2
 167   83   86 1
 168   83   91 am
 169   85   86 1
 170   85  230 1
 171   86   87 1
 172   86  231 1
 173   87   88 1
 174   87  232 1
 175   87  233 1
 176   88  234 1
 177   89   90 2
 178   89   92 1
 179   89   98 am
 180   91   92 1
 181   91  235 1
 182   92   93 1
 183   92  236 1
 184   93   94 1
 185   93   95 1
 186   93  237 1
 187   94  238 1
 188   94  239 1
 189   94  240 1
 190   95  241 1
 191   96   97 2
 192   96   99 1
 193   96  107 am
 194   98   99 1
 195   98  242 1
 196   99  100 1
 197   99  243 1
 198  100  101 1
 199  100  244 1
 200  100  245 1
 201  101  102 1
 202  101  246 1
 203  101  247 1
 204  102  103 2
 205  102  104 1
 206  104  248 1
 207  105  106 2
 208  105  108 1
 209  105  114 am
 210  107  108 1
 211  107  249 1
 212  108  109 1
 213  108  250 1
 214  109  110 1
 215  109  111 1
 216  109  251 1
 217  110  252 1
 218  110  253 1
 219  110  254 1
 220  111  255 1
 221  112  113 2
 222  112  115 1
 223  112  125 am
 224  114  115 1
 225  114  256 1
 226  115  116 1
 227  115  257 1
 228  116  117 1
 229  116  258 1
 230  116  259 1
 231  117  118 ar
 232  117  122 ar
 233  118  119 ar
 234  118  260 1
 235  119  120 ar
 236  119  261 1
 237  120  121 ar
 238  120  262 1
 239  121  122 ar
 240  121  263 1
 241  122  264 1
 242  123  124 2
 243  123  126 1
 244  123  131 1
 245  125  126 1
 246  125  265 1
 247  126  127 1
 248  126  266 1
 249  127  128 1
 250  127  267 1
 251  127  268 1
 252  128  129 1
 253  128  130 1
 254  128  269 1
 255  129  270 1
 256  129  271 1
 257  129  272 1
 258  130  273 1
 259  130  274 1
 260  130  275 1
 261  131  276 1
 262  132  133 2
 263  132  148 1
 264  134  135 1
 265  134  277 1
 266  134  278 1
 267  134  279 1
 268  135  136 1
 269  135  280 1
 270  135  281 1
 271  136  137 1
 272  136  282 1
 273  136  283 1
 274  137  138 1
 275  137  284 1
 276  137  285 1
 277  138  139 1
 278  138  286 1
 279  138  287 1
 280  139  140 1
 281  139  288 1
 282  139  289 1
 283  140  141 1
 284  140  290 1
 285  140  291 1
 286  141  142 1
 287  141  292 1
 288  141  293 1
 289  142  143 1
 290  142  294 1
 291  142  295 1
 292  143  144 1
 293  143  296 1
 294  143  297 1
 295  144  145 1
 296  144  298 1
 297  144  299 1
 298  145  146 1
 299  145  300 1
 300  145  301 1
 301  146  147 1
 302  146  302 1
 303  146  303 1
 304  147  148 1
 305  147  304 1
 306  147  305 1
 307  148  306 1
 308  148  307 1

#	End of record

