#	Name: ASD01915201
#	Creating user name:	WinNT
#	Creation time:	15. 06. 2019 20:05

#	Modifying user name:	WinNT
#	Modification time:	15. 06. 2019 20:05

#	Program:	/corina/corina34_cracker 3.40 0067  02.08.2006

@<TRIPOS>MOLECULE
ASD01915201
  26   27    0    0    0
SMALL
NO_CHARGES


@<TRIPOS>ATOM
   1 C1            -0.0169     1.3928     0.0088 C.ar    
   2 C2             0.0017    -0.0035    -0.0060 C.ar    
   3 C3            -1.1852    -0.7137    -0.0028 C.ar    
   4 C4            -2.3962    -0.0466     0.0155 C.ar    
   5 C5            -2.4270     1.3502     0.0309 C.ar    
   6 C6            -1.2341     2.0707     0.0332 C.ar    
   7 F7            -1.1612    -2.0644    -0.0181 F       
   8 C8             1.2526     2.1503     0.0048 C.2     
   9 N9             2.4292     1.4934    -0.0131 N.am    
  10 O10            1.2351     3.3656     0.0178 O.2     
  11 C11            3.6222     2.2042    -0.1259 C.ar    
  12 C12            4.8357     1.5318    -0.0358 C.ar    
  13 C13            6.0132     2.2500    -0.1495 C.ar    
  14 C14            5.9358     3.6212    -0.3502 C.ar    
  15 C15            4.6956     4.2240    -0.4299 C.ar    
  16 N16            3.5898     3.5129    -0.3232 N.ar    
  17 C17           -3.6818     2.0400     0.0500 C.1     
  18 N18           -4.6772     2.5872     0.0650 N.1     
  19 H19            0.9446    -0.5298    -0.0204 H       
  20 H20           -3.3199    -0.6062     0.0176 H       
  21 H21           -1.2531     3.1504     0.0451 H       
  22 H22            2.4455     0.5258     0.0525 H       
  23 H23            4.8591     0.4635     0.1212 H       
  24 H24            6.9706     1.7548    -0.0832 H       
  25 H25            6.8359     4.2108    -0.4427 H       
  26 H26            4.6305     5.2907    -0.5859 H       
@<TRIPOS>BOND
   1    1    2 ar
   2    1    8 1
   3    1    6 ar
   4    2    3 ar
   5    2   19 1
   6    3    4 ar
   7    3    7 1
   8    4    5 ar
   9    4   20 1
  10    5    6 ar
  11    5   17 1
  12    6   21 1
  13    8    9 am
  14    8   10 2
  15    9   11 1
  16    9   22 1
  17   11   12 ar
  18   11   16 ar
  19   12   13 ar
  20   12   23 1
  21   13   14 ar
  22   13   24 1
  23   14   15 ar
  24   14   25 1
  25   15   16 ar
  26   15   26 1
  27   17   18 3

#	End of record

