#	Name: ASD08070027
#	Creating user name:	WinNT
#	Creation time:	15. 06. 2019 21:14

#	Modifying user name:	WinNT
#	Modification time:	15. 06. 2019 21:14

#	Program:	/corina/corina34_cracker 3.40 0067  02.08.2006

@<TRIPOS>MOLECULE
ASD08070027
  45   46    0    0    0
SMALL
NO_CHARGES


@<TRIPOS>ATOM
   1 C1            -0.0637     2.1814    -0.4473 C.ar    
   2 C2             0.1073     0.7895    -0.5420 C.ar    
   3 C3            -1.0069    -0.0539    -0.4996 C.ar    
   4 C4            -2.2571     0.4732    -0.3668 C.ar    
   5 C5            -2.4359     1.8590    -0.2718 C.ar    
   6 C6            -1.3328     2.7117    -0.3077 C.ar    
   7 O7             1.1742     2.7195    -0.5174 O.3     
   8 C8             2.0576     1.7184    -0.6477 C.2     
   9 N9             1.4428     0.5729    -0.6638 N.2     
  10 C10            3.5499     1.8962    -0.7596 C.3     
  11 C11           -3.7947     2.4182    -0.1287 C.2     
  12 N12           -4.8613     1.5953    -0.0895 N.am    
  13 O13           -3.9514     3.6210    -0.0461 O.2     
  14 C14           -6.2097     2.1502     0.0525 C.3     
  15 C15           -7.2286     1.1710    -0.5340 C.3     
  16 C16           -6.5146     2.3766     1.5346 C.3     
  17 C17           -5.5751     3.4485     2.0906 C.3     
  18 C18           -5.8799     3.6749     3.5728 C.3     
  19 C19           -6.9901     1.0270    -2.0384 C.3     
  20 C20           -7.9115    -0.0580    -2.5993 C.3     
  21 C21           -7.2883     2.3579    -2.7318 C.3     
  22 H22           -0.8771    -1.1236    -0.5726 H       
  23 H23           -3.1150    -0.1820    -0.3349 H       
  24 H24           -1.4698     3.7804    -0.2345 H       
  25 H25            3.9933     1.8798     0.2360 H       
  26 H26            3.9685     1.0864    -1.3572 H       
  27 H27            3.7671     2.8509    -1.2384 H       
  28 H28           -4.7363     0.6357    -0.1554 H       
  29 H29           -6.2699     3.0994    -0.4799 H       
  30 H30           -7.1165     0.1990    -0.0537 H       
  31 H31           -8.2365     1.5480    -0.3604 H       
  32 H32           -7.5477     2.7052     1.6470 H       
  33 H33           -6.3678     1.4455     2.0821 H       
  34 H34           -4.5419     3.1199     1.9782 H       
  35 H35           -5.7218     4.3796     1.5432 H       
  36 H36           -6.9131     4.0035     3.6851 H       
  37 H37           -5.7332     2.7438     4.1202 H       
  38 H38           -5.2106     4.4386     3.9689 H       
  39 H39           -5.9512     0.7492    -2.2166 H       
  40 H40           -8.9451     0.1754    -2.3440 H       
  41 H41           -7.8056    -0.0999    -3.6833 H       
  42 H42           -7.6402    -1.0226    -2.1702 H       
  43 H43           -6.6319     3.1308    -2.3322 H       
  44 H44           -7.1184     2.2553    -3.8035 H       
  45 H45           -8.3271     2.6356    -2.5535 H       
@<TRIPOS>BOND
   1    1    2 ar
   2    1    7 1
   3    1    6 ar
   4    2    3 ar
   5    2    9 1
   6    3    4 ar
   7    3   22 1
   8    4    5 ar
   9    4   23 1
  10    5    6 ar
  11    5   11 1
  12    6   24 1
  13    7    8 1
  14    8    9 2
  15    8   10 1
  16   10   25 1
  17   10   26 1
  18   10   27 1
  19   11   12 am
  20   11   13 2
  21   12   14 1
  22   12   28 1
  23   14   15 1
  24   14   16 1
  25   14   29 1
  26   15   19 1
  27   15   30 1
  28   15   31 1
  29   16   17 1
  30   16   32 1
  31   16   33 1
  32   17   18 1
  33   17   34 1
  34   17   35 1
  35   18   36 1
  36   18   37 1
  37   18   38 1
  38   19   20 1
  39   19   21 1
  40   19   39 1
  41   20   40 1
  42   20   41 1
  43   20   42 1
  44   21   43 1
  45   21   44 1
  46   21   45 1

#	End of record

