#	Name: ASD08070222
#	Creating user name:	WinNT
#	Creation time:	15. 06. 2019 21:14

#	Modifying user name:	WinNT
#	Modification time:	15. 06. 2019 21:14

#	Program:	/corina/corina34_cracker 3.40 0067  02.08.2006

@<TRIPOS>MOLECULE
ASD08070222
  38   39    0    0    0
SMALL
NO_CHARGES


@<TRIPOS>ATOM
   1 C1             0.0036     1.3671     0.2526 C.ar    
   2 C2             0.0958     0.0016     0.4648 C.ar    
   3 C3             1.2796    -0.6609     0.2083 C.ar    
   4 C4             2.3839     0.0487    -0.2661 C.ar    
   5 C5             2.2834     1.4245    -0.4780 C.ar    
   6 C6             1.0948     2.0751    -0.2174 C.ar    
   7 C7             3.6550    -0.6540    -0.5426 C.2     
   8 N8             4.7538     0.0490    -0.8815 N.am    
   9 O9             3.7090    -1.8658    -0.4641 O.2     
  10 C10            6.0356    -1.1059    -2.6150 C.3     
  11 C11            6.0133    -0.6474    -1.1554 C.3     
  12 C12            7.0664     1.5187    -1.8198 C.3     
  13 C13            7.1864     0.3013    -0.9009 C.3     
  14 C14            1.3793    -2.1466     0.4404 C.3     
  15 C15            5.9156     0.1116    -3.5339 C.3     
  16 C16            7.1641     0.7598     0.5586 C.3     
  17 Cl17          -1.2793    -0.8784     1.0549 Cl      
  18 C18            7.0887     1.0602    -3.2793 C.3     
  19 H19           -0.9257     1.8804     0.4508 H       
  20 H20            3.1346     1.9790    -0.8446 H       
  21 H21            1.0162     3.1397    -0.3814 H       
  22 H22            4.7107     1.0160    -0.9441 H       
  23 H23            6.9727    -1.6240    -2.8188 H       
  24 H24            5.1998    -1.7817    -2.7963 H       
  25 H25            6.0987    -1.5147    -0.5008 H       
  26 H26            6.1293     2.0368    -1.6160 H       
  27 H27            7.9021     2.1946    -1.6385 H       
  28 H28            8.1234    -0.2168    -1.1047 H       
  29 H29            1.2142    -2.6731    -0.4996 H       
  30 H30            2.3707    -2.3888     0.8233 H       
  31 H31            0.6251    -2.4525     1.1655 H       
  32 H32            5.9315    -0.2151    -4.5737 H       
  33 H33            4.9785     0.6297    -3.3301 H       
  34 H34            6.2270     1.2779     0.7624 H       
  35 H35            7.2495    -0.1075     1.2133 H       
  36 H36            7.9998     1.4356     0.7400 H       
  37 H37            7.0032     1.9276    -3.9340 H       
  38 H38            8.0258     0.5421    -3.4831 H       
@<TRIPOS>BOND
   1    1    2 ar
   2    1    6 ar
   3    1   19 1
   4    2    3 ar
   5    2   17 1
   6    3    4 ar
   7    3   14 1
   8    4    5 ar
   9    4    7 1
  10    5    6 ar
  11    5   20 1
  12    6   21 1
  13    7    8 am
  14    7    9 2
  15    8   11 1
  16    8   22 1
  17   10   11 1
  18   10   15 1
  19   10   23 1
  20   10   24 1
  21   11   13 1
  22   11   25 1
  23   12   13 1
  24   12   18 1
  25   12   26 1
  26   12   27 1
  27   13   16 1
  28   13   28 1
  29   14   29 1
  30   14   30 1
  31   14   31 1
  32   15   18 1
  33   15   32 1
  34   15   33 1
  35   16   34 1
  36   16   35 1
  37   16   36 1
  38   18   37 1
  39   18   38 1

#	End of record

