#	Name: ASD03430761
#	Creating user name:	WinNT
#	Creation time:	15. 06. 2019 20:41

#	Modifying user name:	WinNT
#	Modification time:	15. 06. 2019 20:41

#	Program:	/corina/corina34_cracker 3.40 0067  02.08.2006

@<TRIPOS>MOLECULE
ASD03430761
  35   39    0    0    0
SMALL
NO_CHARGES


@<TRIPOS>ATOM
   1 C1            -0.0167     1.3813     0.0096 C.ar    
   2 C2             0.0021    -0.0041     0.0020 C.ar    
   3 C3             1.2036    -0.6787    -0.0132 C.ar    
   4 C4             2.4112     0.0163    -0.0104 C.ar    
   5 C5             2.3919     1.4068    -0.0084 C.ar    
   6 C6             1.1867     2.0869     0.0019 C.ar    
   7 O7             3.4732    -0.8390     0.0034 O.3     
   8 C8             1.5522    -2.1426    -0.0478 C.3     
   9 C9             3.0393    -2.1427    -0.4285 C.3     
  10 C10            0.4262    -3.8612     1.0010 C.ar    
  11 C11            1.3116    -2.8197     1.2687 C.ar    
  12 C12            0.7229    -2.9021    -1.0433 C.2     
  13 N13            0.1021    -3.8827    -0.3577 N.am    
  14 O14            0.6299    -2.6771    -2.2315 O.2     
  15 C15            1.7705    -2.6027     2.5484 C.ar    
  16 C16            1.3538    -3.4223     3.5827 C.ar    
  17 C17            0.4759    -4.4595     3.3284 C.ar    
  18 C18            0.0124    -4.6807     2.0479 C.ar    
  19 O19           -1.0193     2.2941     0.0295 O.3     
  20 C20           -0.4916     3.5282     0.0249 C.2     
  21 N21            0.8531     3.4415     0.0082 N.am    
  22 O22           -1.1282     4.5642     0.0380 O.2     
  23 C23            1.7933     4.5650    -0.0019 C.3     
  24 H24           -0.9262    -0.5560     0.0083 H       
  25 H25            3.3207     1.9579    -0.0146 H       
  26 H26            3.1629    -2.2545    -1.5057 H       
  27 H27            3.5757    -2.9261     0.1070 H       
  28 H28           -0.4997    -4.5279    -0.7607 H       
  29 H29            2.4567    -1.7923     2.7452 H       
  30 H30            1.7140    -3.2521     4.5866 H       
  31 H31            0.1513    -5.0993     4.1357 H       
  32 H32           -0.6737    -5.4926     1.8568 H       
  33 H33            1.2384     5.5032     0.0057 H       
  34 H34            2.4311     4.5130     0.8805 H       
  35 H35            2.4098     4.5147    -0.8993 H       
@<TRIPOS>BOND
   1    1    2 ar
   2    1    6 ar
   3    1   19 1
   4    2    3 ar
   5    2   24 1
   6    3    4 ar
   7    3    8 1
   8    4    5 ar
   9    4    7 1
  10    5    6 ar
  11    5   25 1
  12    6   21 1
  13    7    9 1
  14    8    9 1
  15    8   11 1
  16    8   12 1
  17    9   26 1
  18    9   27 1
  19   10   11 ar
  20   10   13 1
  21   10   18 ar
  22   11   15 ar
  23   12   13 am
  24   12   14 2
  25   13   28 1
  26   15   16 ar
  27   15   29 1
  28   16   17 ar
  29   16   30 1
  30   17   18 ar
  31   17   31 1
  32   18   32 1
  33   19   20 1
  34   20   21 am
  35   20   22 2
  36   21   23 1
  37   23   33 1
  38   23   34 1
  39   23   35 1

#	End of record

