#	Name: ASD02508067
#	Creating user name:	WinNT
#	Creation time:	15. 06. 2019 20:23

#	Modifying user name:	WinNT
#	Modification time:	15. 06. 2019 20:23

#	Program:	/corina/corina34_cracker 3.40 0067  02.08.2006

@<TRIPOS>MOLECULE
ASD02508067
  40   42    0    0    0
SMALL
NO_CHARGES


@<TRIPOS>ATOM
   1 C1             1.6667    -4.1131     0.7452 C.ar    
   2 C2             0.9319    -3.0299     0.2905 C.ar    
   3 C3             3.0444    -3.9972     0.9311 C.ar    
   4 C4             3.6769    -2.7948     0.6600 C.ar    
   5 C5             2.9374    -1.7124     0.2053 C.ar    
   6 C6             1.5651    -1.8325     0.0207 C.ar    
   7 N7             1.3253    -5.4201     1.1021 N.am    
   8 C8             2.4588    -6.0463     1.4756 C.2     
   9 O9             3.4931    -5.1967     1.3758 O.3     
  10 N10            3.5747    -0.4975    -0.0684 N.am    
  11 S11            4.8490    -0.0020     0.8659 S.o2    
  12 C12            4.2575     0.1450     2.5191 C.ar    
  13 C13            3.2823     1.0828     2.8269 C.ar    
  14 O14            2.5323    -7.2010     1.8498 O.2     
  15 O15            5.7846    -1.0715     0.8681 O.2     
  16 O16            5.1732     1.3134     0.4373 O.2     
  17 C17            0.7666    -0.6538    -0.4734 C.3     
  18 C18            4.7601    -0.6772     3.5087 C.ar    
  19 C19            4.2960    -0.5626     4.8063 C.ar    
  20 C20            3.3282     0.3746     5.1166 C.ar    
  21 C21            2.8188     1.1961     4.1293 C.ar    
  22 O22            2.7825     1.8894     1.8540 O.3     
  23 C23            1.7810     2.8315     2.2433 C.3     
  24 C24            4.8457    -1.4612     5.8840 C.3     
  25 H25           -0.1346    -3.1219     0.1470 H       
  26 H26            4.7432    -2.7001     0.8027 H       
  27 H27            0.4356    -5.8060     1.0845 H       
  28 H28            3.2701     0.0547    -0.8055 H       
  29 H29            0.7308    -0.6702    -1.5627 H       
  30 H30           -0.2468    -0.7091    -0.0758 H       
  31 H31            1.2381     0.2703    -0.1392 H       
  32 H32            5.5159    -1.4103     3.2688 H       
  33 H33            2.9671     0.4619     6.1307 H       
  34 H34            2.0628     1.9282     4.3722 H       
  35 H35            1.4692     3.4103     1.3739 H       
  36 H36            0.9221     2.3002     2.6531 H       
  37 H37            2.1879     3.5026     2.9997 H       
  38 H38            5.7121    -0.9873     6.3453 H       
  39 H39            4.0796    -1.6323     6.6402 H       
  40 H40            5.1431    -2.4140     5.4459 H       
@<TRIPOS>BOND
   1    1    2 ar
   2    1    3 ar
   3    1    7 1
   4    2    6 ar
   5    2   25 1
   6    3    4 ar
   7    3    9 1
   8    4    5 ar
   9    4   26 1
  10    5    6 ar
  11    5   10 1
  12    6   17 1
  13    7    8 am
  14    7   27 1
  15    8    9 1
  16    8   14 2
  17   10   11 am
  18   10   28 1
  19   11   12 1
  20   11   15 2
  21   11   16 2
  22   12   13 ar
  23   12   18 ar
  24   13   22 1
  25   13   21 ar
  26   17   29 1
  27   17   30 1
  28   17   31 1
  29   18   19 ar
  30   18   32 1
  31   19   20 ar
  32   19   24 1
  33   20   21 ar
  34   20   33 1
  35   21   34 1
  36   22   23 1
  37   23   35 1
  38   23   36 1
  39   23   37 1
  40   24   38 1
  41   24   39 1
  42   24   40 1

#	End of record

