#	Name: ASD01120235
#	Creating user name:	WinNT
#	Creation time:	15. 06. 2019 18:59

#	Modifying user name:	WinNT
#	Modification time:	15. 06. 2019 18:59

#	Program:	/corina/corina34_cracker 3.40 0067  02.08.2006

@<TRIPOS>MOLECULE
ASD01120235
  61   62    0    0    0
SMALL
NO_CHARGES


@<TRIPOS>ATOM
   1 C1            -0.0167     1.3791     0.0096 C.ar    
   2 C2             0.0021    -0.0041     0.0020 C.ar    
   3 C3            -1.1857    -0.7112     0.0100 C.ar    
   4 C4            -2.3919    -0.0365     0.0257 C.ar    
   5 C5            -2.4113     1.3460     0.0333 C.ar    
   6 C6            -1.2245     2.0540     0.0306 C.ar    
   7 S7            -3.9495     2.2052     0.0532 S.o2    
   8 N8            -4.3617     2.4358     1.6404 N.am    
   9 C9            -3.6007     3.2226     2.4268 C.2     
  10 N10           -3.9362     3.4102     3.7186 N.am    
  11 O11           -3.6957     3.4949    -0.4869 O.2     
  12 O12           -4.9146     1.3128    -0.4865 O.2     
  13 O13           -2.6116     3.7631     1.9709 O.2     
  14 C14           -1.2670    12.3664    14.5812 C.ar    
  15 C15           -2.3565    13.1267    14.9666 C.ar    
  16 C16           -3.3588    12.5597    15.7313 C.ar    
  17 C17           -3.2726    11.2334    16.1109 C.ar    
  18 C18           -2.1838    10.4730    15.7260 C.ar    
  19 C19           -1.1838    11.0373    14.9571 C.ar    
  20 S20           -2.0748     8.7824    16.2103 S.o2    
  21 N21           -2.8084     7.8853    15.0274 N.am    
  22 C22           -2.2826     7.8470    13.7870 C.2     
  23 N23           -2.8797     7.1169    12.8242 N.am    
  24 O24           -0.6954     8.4428    16.1742 O.2     
  25 O25           -2.8786     8.6458    17.3741 O.2     
  26 O26           -1.2697     8.4712    13.5365 O.2     
  27 C27           -3.7059     4.3089     5.9815 C.3     
  28 Cl28          -0.0081    13.0775    13.6204 Cl      
  29 Cl29           1.4746     2.2678     0.0002 Cl      
  30 C30           -3.1091     4.2655     4.5734 C.3     
  31 C31           -2.5752     6.1387     9.1751 C.3     
  32 C32           -3.1720     6.1821    10.5832 C.3     
  33 C33           -3.4390     5.2455     8.2824 C.3     
  34 C34           -2.8421     5.2021     6.8742 C.3     
  35 C35           -2.3082     7.0753    11.4759 C.3     
  36 H36            0.9445    -0.5314    -0.0105 H       
  37 H37           -1.1712    -1.7911     0.0037 H       
  38 H38           -3.3197    -0.5894     0.0316 H       
  39 H39           -1.2398     3.1339     0.0365 H       
  40 H40           -5.1507     2.0046     2.0041 H       
  41 H41           -4.7253     2.9790     4.0823 H       
  42 H42           -2.4238    14.1631    14.6704 H       
  43 H43           -4.2093    13.1533    16.0326 H       
  44 H44           -4.0557    10.7910    16.7086 H       
  45 H45           -0.3334    10.4432    14.6565 H       
  46 H46           -3.6165     7.3874    15.2272 H       
  47 H47           -3.6878     6.6190    13.0240 H       
  48 H48           -4.7178     4.7116     5.9350 H       
  49 H49           -3.7347     3.3009     6.3952 H       
  50 H50           -2.0973     3.8628     4.6199 H       
  51 H51           -3.0803     5.2735     4.1597 H       
  52 H52           -2.5464     7.1467     8.7614 H       
  53 H53           -1.5633     5.7360     9.2216 H       
  54 H54           -4.1838     6.5848    10.5367 H       
  55 H55           -3.2008     5.1741    10.9969 H       
  56 H56           -3.4677     4.2375     8.6960 H       
  57 H57           -4.4508     5.6482     8.2358 H       
  58 H58           -1.8303     4.7994     6.9208 H       
  59 H59           -2.8133     6.2101     6.4606 H       
  60 H60           -2.2794     8.0834    11.0622 H       
  61 H61           -1.2964     6.6726    11.5224 H       
@<TRIPOS>BOND
   1    1    2 ar
   2    1   29 1
   3    1    6 ar
   4    2    3 ar
   5    2   36 1
   6    3    4 ar
   7    3   37 1
   8    4    5 ar
   9    4   38 1
  10    5    6 ar
  11    5    7 1
  12    6   39 1
  13    7    8 am
  14    7   11 2
  15    7   12 2
  16    8    9 am
  17    8   40 1
  18    9   10 am
  19    9   13 2
  20   10   30 1
  21   10   41 1
  22   14   15 ar
  23   14   28 1
  24   14   19 ar
  25   15   16 ar
  26   15   42 1
  27   16   17 ar
  28   16   43 1
  29   17   18 ar
  30   17   44 1
  31   18   19 ar
  32   18   20 1
  33   19   45 1
  34   20   21 am
  35   20   24 2
  36   20   25 2
  37   21   22 am
  38   21   46 1
  39   22   23 am
  40   22   26 2
  41   23   35 1
  42   23   47 1
  43   27   30 1
  44   27   34 1
  45   27   48 1
  46   27   49 1
  47   30   50 1
  48   30   51 1
  49   31   32 1
  50   31   33 1
  51   31   52 1
  52   31   53 1
  53   32   35 1
  54   32   54 1
  55   32   55 1
  56   33   34 1
  57   33   56 1
  58   33   57 1
  59   34   58 1
  60   34   59 1
  61   35   60 1
  62   35   61 1

#	End of record

