#	Name: ASD01916298
#	Creating user name:	WinNT
#	Creation time:	15. 06. 2019 20:07

#	Modifying user name:	WinNT
#	Modification time:	15. 06. 2019 20:07

#	Program:	/corina/corina34_cracker 3.40 0067  02.08.2006

@<TRIPOS>MOLECULE
ASD01916298
  42   43    0    0    0
SMALL
NO_CHARGES


@<TRIPOS>ATOM
   1 C1            -0.0169     1.3983     0.0097 C.ar    
   2 C2             0.0021    -0.0041     0.0020 C.ar    
   3 C3             1.2375    -0.6680    -0.0133 C.ar    
   4 N4             2.3608     0.0092    -0.0204 N.ar    
   5 C5             2.3777     1.3386    -0.0135 C.ar    
   6 C6             1.1892     2.0706     0.0018 C.ar    
   7 C7            -1.2220    -0.7472     0.0102 C.1     
   8 C8            -2.2255    -1.3565     0.0169 C.1     
   9 C9            -3.4495    -2.0996     0.0250 C.2     
  10 C10            3.6727     2.0512    -0.0215 C.2     
  11 O11            3.6977     3.2666    -0.0152 O.2     
  12 N12            4.8257     1.3536    -0.0358 N.am    
  13 C13            6.1092     2.0599    -0.0438 C.3     
  14 C14            7.1918     1.1571     0.5511 C.3     
  15 C15            6.4822     2.4236    -1.4823 C.3     
  16 C16            6.7599     0.6923     1.9433 C.3     
  17 O17            7.3808     0.0200    -0.2934 O.3     
  18 C18            8.5039     1.9367     0.6580 C.3     
  19 C19           -3.4922    -3.4537     0.0182 C.2     
  20 S20           -5.1854    -3.9401     0.0324 S.3     
  21 C21           -5.6715    -2.3019     0.0460 C.2     
  22 N22           -4.6464    -1.5244     0.0457 N.2     
  23 C23           -7.1035    -1.8326     0.0622 C.3     
  24 H24           -0.9518     1.9390     0.0171 H       
  25 H25            1.2641    -1.7477    -0.0190 H       
  26 H26            1.2128     3.1503     0.0070 H       
  27 H27            4.8058     0.3838    -0.0408 H       
  28 H28            6.0271     2.9694     0.5513 H       
  29 H29            5.7109     3.0667    -1.9061 H       
  30 H30            7.4372     2.9491    -1.4883 H       
  31 H31            6.5643     1.5141    -2.0774 H       
  32 H32            5.8251     0.1368     1.8672 H       
  33 H33            7.5312     0.0491     2.3672 H       
  34 H34            6.6157     1.5596     2.5875 H       
  35 H35            6.5880    -0.5219    -0.4067 H       
  36 H36            8.3597     2.8041     1.3022 H       
  37 H37            9.2752     1.2936     1.0818 H       
  38 H38            8.8116     2.2679    -0.3338 H       
  39 H39           -2.6400    -4.1169     0.0057 H       
  40 H40           -7.7688    -2.6961     0.0643 H       
  41 H41           -7.2801    -1.2357     0.9570 H       
  42 H42           -7.2973    -1.2267    -0.8228 H       
@<TRIPOS>BOND
   1    1    2 ar
   2    1    6 ar
   3    1   24 1
   4    2    3 ar
   5    2    7 1
   6    3    4 ar
   7    3   25 1
   8    4    5 ar
   9    5    6 ar
  10    5   10 1
  11    6   26 1
  12    7    8 3
  13    8    9 1
  14    9   19 2
  15    9   22 1
  16   10   11 2
  17   10   12 am
  18   12   13 1
  19   12   27 1
  20   13   14 1
  21   13   15 1
  22   13   28 1
  23   14   16 1
  24   14   17 1
  25   14   18 1
  26   15   29 1
  27   15   30 1
  28   15   31 1
  29   16   32 1
  30   16   33 1
  31   16   34 1
  32   17   35 1
  33   18   36 1
  34   18   37 1
  35   18   38 1
  36   19   20 1
  37   19   39 1
  38   20   21 1
  39   21   22 2
  40   21   23 1
  41   23   40 1
  42   23   41 1
  43   23   42 1

#	End of record

