#	Name: ASD01150194
#	Creating user name:	WinNT
#	Creation time:	15. 06. 2019 19:03

#	Modifying user name:	WinNT
#	Modification time:	15. 06. 2019 19:03

#	Program:	/corina/corina34_cracker 3.40 0067  02.08.2006

@<TRIPOS>MOLECULE
ASD01150194
  55   57    0    0    0
SMALL
NO_CHARGES


@<TRIPOS>ATOM
   1 N1             0.0184     1.3957     0.0593 N.pl3   
   2 C2             0.0692     0.0084     0.0334 C.2     
   3 C3            -1.2498    -0.4310    -0.0041 C.2     
   4 N4            -2.0337     0.6484    -0.0002 N.2     
   5 C5            -1.2965     1.7397     0.0424 C.2     
   6 C6             1.1084    -0.9387     0.0380 C.2     
   7 N7             0.8044    -2.2527     0.0061 N.am    
   8 C8            -0.4739    -2.6668    -0.0299 C.2     
   9 N9            -1.4988    -1.7937    -0.0357 N.am    
  10 O10            2.2716    -0.5764     0.0702 O.2     
  11 C11           -2.8784    -2.2849    -0.0750 C.3     
  12 O12           -0.7105    -3.8593    -0.0584 O.2     
  13 C13            1.8838    -3.2432     0.0104 C.3     
  14 C14            2.2232    -3.6102     1.4321 C.ar    
  15 C15            1.5696    -4.6604     2.0494 C.ar    
  16 C16            1.8805    -4.9975     3.3532 C.ar    
  17 C17            2.8459    -4.2837     4.0406 C.ar    
  18 C18            3.4997    -3.2327     3.4223 C.ar    
  19 C19            3.1920    -2.9002     2.1165 C.ar    
  20 N20           -1.7820     3.0271     0.0588 N.3     
  21 C21            1.1610     2.3116     0.1029 C.3     
  22 C22           -3.3901    -2.4831     1.3532 C.3     
  23 Cl23           3.2365    -4.7061     5.6785 Cl      
  24 C24           -4.8309    -2.9960     1.3122 C.3     
  25 C25           -2.5099     3.3310    -1.1804 C.3     
  26 C26           -2.6296     3.2551     1.2367 C.3     
  27 C27           -2.8169     4.8288    -1.2373 C.3     
  28 O28           -1.5940     5.5626    -1.3276 O.3     
  29 C29           -1.7693     6.9795    -1.3866 C.3     
  30 H30           -3.5081    -1.5587    -0.5890 H       
  31 H31           -2.9107    -3.2353    -0.6077 H       
  32 H32            1.5611    -4.1345    -0.5278 H       
  33 H33            2.7640    -2.8235    -0.4765 H       
  34 H34            0.8157    -5.2173     1.5128 H       
  35 H35            1.3696    -5.8177     3.8355 H       
  36 H36            4.2534    -2.6752     3.9583 H       
  37 H37            3.7022    -2.0799     1.6337 H       
  38 H38            1.5277     2.4836    -0.9090 H       
  39 H39            0.8505     3.2593     0.5428 H       
  40 H40            1.9551     1.8733     0.7075 H       
  41 H41           -2.7604    -3.2093     1.8672 H       
  42 H42           -3.3578    -1.5326     1.8859 H       
  43 H43           -5.4606    -2.2698     0.7982 H       
  44 H44           -4.8632    -3.9464     0.7795 H       
  45 H45           -5.1954    -3.1372     2.3297 H       
  46 H46           -1.8984     3.0526    -2.0387 H       
  47 H47           -3.4430     2.7679    -1.2011 H       
  48 H48           -2.0788     2.9864     2.1382 H       
  49 H49           -2.9116     4.3069     1.2832 H       
  50 H50           -3.5272     2.6411     1.1628 H       
  51 H51           -3.4330     5.0406    -2.1112 H       
  52 H52           -3.3522     5.1245    -0.3350 H       
  53 H53           -2.3637     7.2359    -2.2636 H       
  54 H54           -2.2829     7.3199    -0.4875 H       
  55 H55           -0.7951     7.4637    -1.4538 H       
@<TRIPOS>BOND
   1    1    2 1
   2    1   21 1
   3    1    5 1
   4    2    3 2
   5    2    6 1
   6    3    4 1
   7    3    9 1
   8    4    5 2
   9    5   20 1
  10    6    7 am
  11    6   10 2
  12    7    8 am
  13    7   13 1
  14    8    9 am
  15    8   12 2
  16    9   11 1
  17   11   22 1
  18   11   30 1
  19   11   31 1
  20   13   14 1
  21   13   32 1
  22   13   33 1
  23   14   15 ar
  24   14   19 ar
  25   15   16 ar
  26   15   34 1
  27   16   17 ar
  28   16   35 1
  29   17   18 ar
  30   17   23 1
  31   18   19 ar
  32   18   36 1
  33   19   37 1
  34   20   25 1
  35   20   26 1
  36   21   38 1
  37   21   39 1
  38   21   40 1
  39   22   24 1
  40   22   41 1
  41   22   42 1
  42   24   43 1
  43   24   44 1
  44   24   45 1
  45   25   27 1
  46   25   46 1
  47   25   47 1
  48   26   48 1
  49   26   49 1
  50   26   50 1
  51   27   28 1
  52   27   51 1
  53   27   52 1
  54   28   29 1
  55   29   53 1
  56   29   54 1
  57   29   55 1

#	End of record

