#	Name: ASD04882224
#	Creating user name:	WinNT
#	Creation time:	15. 06. 2019 20:54

#	Modifying user name:	WinNT
#	Modification time:	15. 06. 2019 20:54

#	Program:	/corina/corina34_cracker 3.40 0067  02.08.2006

@<TRIPOS>MOLECULE
ASD04882224
  77   81    0    0    0
SMALL
NO_CHARGES


@<TRIPOS>ATOM
   1 N1            -0.1348     1.5538    -0.0371 N.am    
   2 C2            -0.0759     0.1533    -0.0464 C.ar    
   3 C3            -1.2526    -0.5967     0.0298 C.ar    
   4 C4            -1.1956    -1.9858     0.0212 C.ar    
   5 C5             0.0199    -2.6276    -0.0625 C.ar    
   6 C6             1.2006    -1.8834    -0.1394 C.ar    
   7 C7             1.1455    -0.4868    -0.1367 C.ar    
   8 N8            -2.4837     0.0482     0.1150 N.3     
   9 C9            -2.6098     0.7769     1.3849 C.3     
  10 C10           -3.5899    -0.9043    -0.0544 C.3     
  11 C11           -4.9196    -0.1466    -0.0339 C.3     
  12 N12           -5.0457     0.5821     1.2360 N.3     
  13 C13           -3.9394     1.5345     1.4054 C.3     
  14 C14           -6.2807     1.2289     1.3214 C.ar    
  15 C15            2.5027    -2.5712    -0.2291 C.2     
  16 O16            3.5293    -1.9230    -0.2960 O.2     
  17 C17            0.8479     2.2658     0.5493 C.2     
  18 O18            1.7292     1.6963     1.1578 O.2     
  19 C19           -7.1600     0.9174     2.3510 C.ar    
  20 C20           -6.6301     2.1890     0.3806 C.ar    
  21 C21           -7.8522     2.8267     0.4680 C.ar    
  22 C22           -8.7271     2.5106     1.4909 C.ar    
  23 C23           -8.3801     1.5588     2.4325 C.ar    
  24 C24           -6.7828    -0.1195     3.3774 C.3     
  25 C25            0.8519     3.7694     0.4488 C.3     
  26 C26            2.0657     4.3272     1.1949 C.3     
  27 C27            2.3148     5.8345     1.1115 C.3     
  28 C28            1.7998     5.2150     2.4123 C.3     
  29 N29            2.5543    -3.9179    -0.2368 N.am    
  30 C30            3.8473    -4.6009    -0.3258 C.3     
  31 C31            3.6262    -6.1148    -0.3157 C.3     
  32 C32            4.9766    -6.8280    -0.4087 C.3     
  33 N33            4.7649    -8.2776    -0.3990 N.am    
  34 C34            4.5640    -9.0932    -1.6025 C.3     
  35 C35            3.9615   -10.4248    -1.1022 C.3     
  36 C36            4.4829   -10.4799     0.3525 C.3     
  37 C37            4.7354    -9.0324     0.7128 C.2     
  38 O38            4.8825    -8.6130     1.8413 O.2     
  39 H39           -0.8809     2.0106    -0.4561 H       
  40 H40           -2.1066    -2.5628     0.0806 H       
  41 H41            0.0610    -3.7068    -0.0683 H       
  42 H42            2.0562     0.0908    -0.1960 H       
  43 H43           -2.5812     0.0700     2.2142 H       
  44 H44           -1.7864     1.4846     1.4814 H       
  45 H45           -3.4811    -1.4222    -1.0073 H       
  46 H46           -3.5725    -1.6302     0.7585 H       
  47 H47           -4.9482     0.5602    -0.8632 H       
  48 H48           -5.7429    -0.8544    -0.1304 H       
  49 H49           -4.0482     2.0525     2.3583 H       
  50 H50           -3.9569     2.2605     0.5925 H       
  51 H51           -5.9468     2.4369    -0.4182 H       
  52 H52           -8.1245     3.5734    -0.2633 H       
  53 H53           -9.6817     3.0112     1.5573 H       
  54 H54           -9.0658     1.3142     3.2302 H       
  55 H55           -6.2678     0.3624     4.2085 H       
  56 H56           -7.6833    -0.6118     3.7444 H       
  57 H57           -6.1244    -0.8591     2.9217 H       
  58 H58            0.9033     4.0634    -0.5996 H       
  59 H59           -0.0612     4.1657     0.8929 H       
  60 H60            2.9377     3.6741     1.2287 H       
  61 H61            3.3507     6.1730     1.0908 H       
  62 H62            1.6140     6.4287     0.5251 H       
  63 H63            0.7603     5.4017     2.6816 H       
  64 H64            2.4969     5.1460     3.2474 H       
  65 H65            1.7354    -4.4350    -0.1834 H       
  66 H66            4.3475    -4.3129    -1.2505 H       
  67 H67            4.4668    -4.3185     0.5255 H       
  68 H68            3.1261    -6.4028     0.6090 H       
  69 H69            3.0068    -6.3972    -1.1670 H       
  70 H70            5.4767    -6.5400    -1.3334 H       
  71 H71            5.5960    -6.5456     0.4426 H       
  72 H72            3.8713    -8.5977    -2.2827 H       
  73 H73            5.5173    -9.2737    -2.0993 H       
  74 H74            2.8722   -10.3930    -1.1252 H       
  75 H75            4.3381   -11.2662    -1.6837 H       
  76 H76            3.7308   -10.9143     1.0111 H       
  77 H77            5.4109   -11.0493     0.4038 H       
@<TRIPOS>BOND
   1    1    2 1
   2    1   17 am
   3    1   39 1
   4    2    3 ar
   5    2    7 ar
   6    3    4 ar
   7    3    8 1
   8    4    5 ar
   9    4   40 1
  10    5    6 ar
  11    5   41 1
  12    6    7 ar
  13    6   15 1
  14    7   42 1
  15    8    9 1
  16    8   10 1
  17    9   13 1
  18    9   43 1
  19    9   44 1
  20   10   11 1
  21   10   45 1
  22   10   46 1
  23   11   12 1
  24   11   47 1
  25   11   48 1
  26   12   13 1
  27   12   14 1
  28   13   49 1
  29   13   50 1
  30   14   19 ar
  31   14   20 ar
  32   15   16 2
  33   15   29 am
  34   17   18 2
  35   17   25 1
  36   19   24 1
  37   19   23 ar
  38   20   21 ar
  39   20   51 1
  40   21   22 ar
  41   21   52 1
  42   22   23 ar
  43   22   53 1
  44   23   54 1
  45   24   55 1
  46   24   56 1
  47   24   57 1
  48   25   26 1
  49   25   58 1
  50   25   59 1
  51   26   27 1
  52   26   28 1
  53   26   60 1
  54   27   28 1
  55   27   61 1
  56   27   62 1
  57   28   63 1
  58   28   64 1
  59   29   30 1
  60   29   65 1
  61   30   31 1
  62   30   66 1
  63   30   67 1
  64   31   32 1
  65   31   68 1
  66   31   69 1
  67   32   33 1
  68   32   70 1
  69   32   71 1
  70   33   34 1
  71   33   37 am
  72   34   35 1
  73   34   72 1
  74   34   73 1
  75   35   36 1
  76   35   74 1
  77   35   75 1
  78   36   37 1
  79   36   76 1
  80   36   77 1
  81   37   38 2

#	End of record

