#	Name: ASD01912289
#	Creating user name:	WinNT
#	Creation time:	15. 06. 2019 19:59

#	Modifying user name:	WinNT
#	Modification time:	15. 06. 2019 19:59

#	Program:	/corina/corina34_cracker 3.40 0067  02.08.2006

@<TRIPOS>MOLECULE
ASD01912289
  48   50    0    0    0
SMALL
NO_CHARGES


@<TRIPOS>ATOM
   1 C1            -0.0167     1.3791     0.0096 C.ar    
   2 C2             0.0021    -0.0041     0.0020 C.ar    
   3 C3             1.2202    -0.6700    -0.0132 C.ar    
   4 C4             2.3829     0.0790    -0.0202 C.ar    
   5 C5             2.2916     1.4735    -0.0119 C.ar    
   6 N6             1.1034     2.0714     0.0026 N.ar    
   7 C7             3.4855     2.2642    -0.0190 C.1     
   8 C8             4.4642     2.9125    -0.0248 C.1     
   9 C9             5.6581     3.7033    -0.0320 C.2     
  10 N10            5.4112     7.5517    -1.1198 N.am    
  11 C11            6.7206     6.8901    -1.1864 C.3     
  12 C12            6.8259     5.8862    -0.0314 C.3     
  13 C13            5.5764     5.0331    -0.0241 C.2     
  14 C14            4.2319     5.7267    -0.0070 C.3     
  15 C15            4.1917     6.7346    -1.1626 C.3     
  16 S16            5.3111     9.1997    -0.9910 S.o2    
  17 O17            4.0624     9.4260    -0.3517 O.2     
  18 O18            6.5316     9.5774    -0.3690 O.2     
  19 C19            5.2632     9.7857    -2.7071 C.3     
  20 C20            5.1709    11.2898    -2.7219 C.ar    
  21 C21            6.3234    12.0529    -2.7370 C.ar    
  22 C22            6.2387    13.4326    -2.7505 C.ar    
  23 C23            5.0015    14.0492    -2.7493 C.ar    
  24 C24            3.8490    13.2861    -2.7351 C.ar    
  25 C25            3.9336    11.9063    -2.7260 C.ar    
  26 C26           -1.3378     2.1040     0.0198 C.3     
  27 H27           -0.9231    -0.5612     0.0082 H       
  28 H28            1.2589    -1.7493    -0.0190 H       
  29 H29            3.3474    -0.4068    -0.0317 H       
  30 H30            6.6247     3.2217    -0.0438 H       
  31 H31            6.8169     6.3652    -2.1368 H       
  32 H32            7.5114     7.6349    -1.0963 H       
  33 H33            7.7016     5.2531    -0.1741 H       
  34 H34            6.9099     6.4220     0.9141 H       
  35 H35            3.4378     4.9909    -0.1340 H       
  36 H36            4.1006     6.2492     0.9405 H       
  37 H37            3.3175     7.3771    -1.0569 H       
  38 H38            4.1427     6.2007    -2.1116 H       
  39 H39            6.1704     9.4723    -3.2235 H       
  40 H40            4.3939     9.3634    -3.2111 H       
  41 H41            7.2900    11.5712    -2.7379 H       
  42 H42            7.1392    14.0288    -2.7616 H       
  43 H43            4.9354    15.1271    -2.7592 H       
  44 H44            2.8824    13.7678    -2.7339 H       
  45 H45            3.0331    11.3101    -2.7186 H       
  46 H46           -1.6515     2.2732     1.0499 H       
  47 H47           -1.2307     3.0618    -0.4894 H       
  48 H48           -2.0869     1.5014    -0.4938 H       
@<TRIPOS>BOND
   1    1    2 ar
   2    1    6 ar
   3    1   26 1
   4    2    3 ar
   5    2   27 1
   6    3    4 ar
   7    3   28 1
   8    4    5 ar
   9    4   29 1
  10    5    6 ar
  11    5    7 1
  12    7    8 3
  13    8    9 1
  14    9   13 2
  15    9   30 1
  16   10   11 1
  17   10   15 1
  18   10   16 am
  19   11   12 1
  20   11   31 1
  21   11   32 1
  22   12   13 1
  23   12   33 1
  24   12   34 1
  25   13   14 1
  26   14   15 1
  27   14   35 1
  28   14   36 1
  29   15   37 1
  30   15   38 1
  31   16   17 2
  32   16   18 2
  33   16   19 1
  34   19   20 1
  35   19   39 1
  36   19   40 1
  37   20   21 ar
  38   20   25 ar
  39   21   22 ar
  40   21   41 1
  41   22   23 ar
  42   22   42 1
  43   23   24 ar
  44   23   43 1
  45   24   25 ar
  46   24   44 1
  47   25   45 1
  48   26   46 1
  49   26   47 1
  50   26   48 1

#	End of record

