#	Name: ASD02508029
#	Creating user name:	WinNT
#	Creation time:	15. 06. 2019 20:23

#	Modifying user name:	WinNT
#	Modification time:	15. 06. 2019 20:23

#	Program:	/corina/corina34_cracker 3.40 0067  02.08.2006

@<TRIPOS>MOLECULE
ASD02508029
  54   56    0    0    0
SMALL
NO_CHARGES


@<TRIPOS>ATOM
   1 S1             0.0938     1.6560    -0.0108 S.o2    
   2 N2             0.0618     0.0003    -0.0076 N.am    
   3 C3             0.2046    -0.7481     1.2491 C.3     
   4 C4            -0.1162    -0.7468    -1.2606 C.3     
   5 C5            -1.3187    -1.6859    -1.1047 C.3     
   6 N6            -1.1702    -2.4344     0.1513 N.am    
   7 C7            -0.9986    -1.6872     1.3997 C.3     
   8 S8            -1.2034    -4.0901     0.1546 S.o2    
   9 O9            -1.5897    -4.4810     1.4650 O.2     
  10 O10           -1.9127    -4.4796    -1.0135 O.2     
  11 C11           -0.3736     0.2307    -2.4092 C.3     
  12 C12           -2.6093    -0.8651    -1.0638 C.3     
  13 C13            1.7422     2.1450    -0.3961 C.ar    
  14 O14           -0.7137     2.0709    -1.1040 O.2     
  15 O15           -0.1430     2.0645     1.3294 O.2     
  16 C16            0.4547    -4.6454    -0.0618 C.ar    
  17 C17            1.2606    -4.8641     1.0427 C.ar    
  18 C18            2.5630    -5.3003     0.8742 C.ar    
  19 C19            3.0609    -5.5188    -0.4019 C.ar    
  20 C20            2.2524    -5.2997    -1.5074 C.ar    
  21 C21            0.9488    -4.8682    -1.3358 C.ar    
  22 O22            4.3399    -5.9467    -0.5688 O.3     
  23 C23            4.7857    -6.1509    -1.9110 C.3     
  24 F24            0.1595    -4.6593    -2.4122 F       
  25 F25            0.7753    -4.6512     2.2854 F       
  26 C26            2.1143     2.3395    -1.7120 C.ar    
  27 C27            2.6601     2.3392     0.6194 C.ar    
  28 C28            3.9547     2.7239     0.3215 C.ar    
  29 C29            4.3348     2.9150    -0.9922 C.ar    
  30 C30            3.4137     2.7254    -2.0148 C.ar    
  31 N31            3.7948     2.9178    -3.3447 N.pl3   
  32 H32            1.1242    -1.3328     1.2241 H       
  33 H33            0.2331    -0.0526     2.0879 H       
  34 H34            0.7800    -1.3314    -1.4684 H       
  35 H35           -1.3509    -2.3813    -1.9434 H       
  36 H36           -0.8142    -2.3817     2.2193 H       
  37 H37           -1.8975    -1.1059     1.6047 H       
  38 H38            0.4099     0.9884    -2.4239 H       
  39 H39           -0.3725    -0.3114    -3.3548 H       
  40 H40           -1.3414     0.7115    -2.2671 H       
  41 H41           -2.7095    -0.2992    -1.9900 H       
  42 H42           -3.4623    -1.5346    -0.9530 H       
  43 H43           -2.5755    -0.1768    -0.2193 H       
  44 H44            3.1916    -5.4701     1.7358 H       
  45 H45            2.6389    -5.4692    -2.5015 H       
  46 H46            5.8212    -6.4911    -1.9021 H       
  47 H47            4.1601    -6.9034    -2.3911 H       
  48 H48            4.7159    -5.2140    -2.4636 H       
  49 H49            1.3958     2.1913    -2.5046 H       
  50 H50            2.3654     2.1904     1.6478 H       
  51 H51            4.6691     2.8754     1.1172 H       
  52 H52            5.3460     3.2154    -1.2242 H       
  53 H53            4.7035     3.1840    -3.5551 H       
  54 H54            3.1508     2.7851    -4.0578 H       
@<TRIPOS>BOND
   1    1    2 am
   2    1   13 1
   3    1   14 2
   4    1   15 2
   5    2    3 1
   6    2    4 1
   7    3    7 1
   8    3   32 1
   9    3   33 1
  10    4    5 1
  11    4   11 1
  12    4   34 1
  13    5    6 1
  14    5   12 1
  15    5   35 1
  16    6    7 1
  17    6    8 am
  18    7   36 1
  19    7   37 1
  20    8    9 2
  21    8   10 2
  22    8   16 1
  23   11   38 1
  24   11   39 1
  25   11   40 1
  26   12   41 1
  27   12   42 1
  28   12   43 1
  29   13   26 ar
  30   13   27 ar
  31   16   17 ar
  32   16   21 ar
  33   17   18 ar
  34   17   25 1
  35   18   19 ar
  36   18   44 1
  37   19   20 ar
  38   19   22 1
  39   20   21 ar
  40   20   45 1
  41   21   24 1
  42   22   23 1
  43   23   46 1
  44   23   47 1
  45   23   48 1
  46   26   30 ar
  47   26   49 1
  48   27   28 ar
  49   27   50 1
  50   28   29 ar
  51   28   51 1
  52   29   30 ar
  53   29   52 1
  54   30   31 1
  55   31   53 1
  56   31   54 1

#	End of record

