#	Name: ASD01150302
#	Creating user name:	WinNT
#	Creation time:	15. 06. 2019 19:04

#	Modifying user name:	WinNT
#	Modification time:	15. 06. 2019 19:04

#	Program:	/corina/corina34_cracker 3.40 0067  02.08.2006

@<TRIPOS>MOLECULE
ASD01150302
  65   67    0    0    0
SMALL
NO_CHARGES


@<TRIPOS>ATOM
   1 C1            -0.0158     1.3123     0.0093 C.2     
   2 N2             0.0021    -0.0041     0.0020 N.2     
   3 C3            -1.2465    -0.4793     0.0114 C.2     
   4 C4            -2.1136     0.6064     0.0255 C.2     
   5 N5            -1.3044     1.7452     0.0298 N.pl3   
   6 N6             1.0958     2.1230     0.0030 N.3     
   7 C7             2.3292     1.3252    -0.0137 C.3     
   8 C8             1.0587     3.0586    -1.1289 C.3     
   9 C9            -1.7377     3.0774     0.0433 C.ar    
  10 N10           -1.6125    -1.8195     0.0070 N.am    
  11 C11           -3.5221     0.5667     0.0380 C.2     
  12 O12           -4.2299     1.7168     0.0505 O.3     
  13 O13           -4.1011    -0.5047     0.0375 O.2     
  14 C14           -5.6543     1.6019     0.0628 C.3     
  15 C15           -6.0933     0.8353     1.3120 C.3     
  16 C16           -6.2785     2.9986     0.0759 C.3     
  17 C17           -6.1159     0.8486    -1.1864 C.3     
  18 C18           -1.4633     3.8872     1.1373 C.ar    
  19 C19           -1.8913     5.2003     1.1474 C.ar    
  20 C20           -2.5930     5.7086     0.0697 C.ar    
  21 C21           -2.8678     4.9046    -1.0213 C.ar    
  22 C22           -2.4375     3.5923    -1.0399 C.ar    
  23 C23           -0.6641    -2.7770    -0.0075 C.2     
  24 C24           -1.0497    -4.1891    -0.0121 C.2     
  25 O25            0.5131    -2.4676    -0.0167 O.2     
  26 S26           -2.6999    -4.7959    -0.0009 S.3     
  27 C27           -2.1557    -6.4128    -0.0156 C.2     
  28 C28           -0.8191    -6.4689    -0.0281 C.2     
  29 C29           -0.1838    -5.2485    -0.0319 C.2     
  30 Cl30           1.5429    -5.0706    -0.0485 Cl      
  31 S31            0.0630    -7.9940    -0.0448 S.o2    
  32 C32            0.9184    -8.0047    -1.6444 C.3     
  33 O33            0.9968    -7.8704     1.0192 O.2     
  34 O34           -0.9531    -8.9869    -0.0160 O.2     
  35 C35            1.6282    -9.3467    -1.8342 C.3     
  36 C36           -0.0997    -7.8027    -2.7685 C.3     
  37 H37            2.3464     0.7015    -0.9074 H       
  38 H38            3.1924     1.9908    -0.0183 H       
  39 H39            2.3639     0.6914     0.8724 H       
  40 H40            0.1697     3.6849    -1.0537 H       
  41 H41            1.9488     3.6874    -1.1100 H       
  42 H42            1.0299     2.4977    -2.0631 H       
  43 H43           -2.5506    -2.0661     0.0143 H       
  44 H44           -5.7644     1.3719     2.2019 H       
  45 H45           -7.1797     0.7476     1.3213 H       
  46 H46           -5.6486    -0.1598     1.3027 H       
  47 H47           -5.9657     3.5448    -0.8141 H       
  48 H48           -7.3650     2.9110     0.0852 H       
  49 H49           -5.9496     3.5353     0.9658 H       
  50 H50           -5.6712    -0.1465    -1.1957 H       
  51 H51           -7.2023     0.7609    -1.1770 H       
  52 H52           -5.8031     1.3947    -2.0763 H       
  53 H53           -0.9159     3.4906     1.9797 H       
  54 H54           -1.6782     5.8306     1.9981 H       
  55 H55           -2.9273     6.7355     0.0802 H       
  56 H56           -3.4160     5.3045    -1.8616 H       
  57 H57           -2.6521     2.9650    -1.8924 H       
  58 H58           -2.8042    -7.2765    -0.0150 H       
  59 H59            1.6520    -7.1989    -1.6695 H       
  60 H60            0.8945   -10.1525    -1.8091 H       
  61 H61            2.1421    -9.3532    -2.7954 H       
  62 H62            2.3535    -9.4907    -1.0334 H       
  63 H63           -0.8333    -8.6085    -2.7434 H       
  64 H64           -0.6053    -6.8466    -2.6332 H       
  65 H65            0.4143    -7.8091    -3.7297 H       
@<TRIPOS>BOND
   1    1    2 2
   2    1    6 1
   3    1    5 1
   4    2    3 1
   5    3    4 2
   6    3   10 1
   7    4    5 1
   8    4   11 1
   9    5    9 1
  10    6    7 1
  11    6    8 1
  12    7   37 1
  13    7   38 1
  14    7   39 1
  15    8   40 1
  16    8   41 1
  17    8   42 1
  18    9   18 ar
  19    9   22 ar
  20   10   23 am
  21   10   43 1
  22   11   12 1
  23   11   13 2
  24   12   14 1
  25   14   15 1
  26   14   16 1
  27   14   17 1
  28   15   44 1
  29   15   45 1
  30   15   46 1
  31   16   47 1
  32   16   48 1
  33   16   49 1
  34   17   50 1
  35   17   51 1
  36   17   52 1
  37   18   19 ar
  38   18   53 1
  39   19   20 ar
  40   19   54 1
  41   20   21 ar
  42   20   55 1
  43   21   22 ar
  44   21   56 1
  45   22   57 1
  46   23   24 1
  47   23   25 2
  48   24   26 1
  49   24   29 2
  50   26   27 1
  51   27   28 2
  52   27   58 1
  53   28   29 1
  54   28   31 1
  55   29   30 1
  56   31   32 1
  57   31   33 2
  58   31   34 2
  59   32   35 1
  60   32   36 1
  61   32   59 1
  62   35   60 1
  63   35   61 1
  64   35   62 1
  65   36   63 1
  66   36   64 1
  67   36   65 1

#	End of record

