#	Name: ASD02030391
#	Creating user name:	WinNT
#	Creation time:	15. 06. 2019 20:15

#	Modifying user name:	WinNT
#	Modification time:	15. 06. 2019 20:15

#	Program:	/corina/corina34_cracker 3.40 0067  02.08.2006

@<TRIPOS>MOLECULE
ASD02030391
  24   25    0    0    0
SMALL
NO_CHARGES


@<TRIPOS>ATOM
   1 O1            -0.0161     1.3335     0.0094 O.3     
   2 C2             0.0021    -0.0041     0.0020 C.2     
   3 C3             1.2888    -0.4488    -0.0127 C.2     
   4 C4             2.1311     0.7644    -0.0142 C.ar    
   5 C5             1.2336     1.8422     0.0002 C.ar    
   6 C6             3.5025     0.9935    -0.0261 C.ar    
   7 C7             3.9775     2.2889    -0.0237 C.ar    
   8 C8             3.0918     3.3564    -0.0090 C.ar    
   9 C9             1.7302     3.1397     0.0020 C.ar    
  10 C10            1.7447    -1.8454    -0.0238 C.2     
  11 O11            1.9235    -2.4180    -1.0812 O.2     
  12 O12            1.9648    -2.4919     1.1386 O.3     
  13 C13           -1.2193    -0.8868     0.0097 C.3     
  14 Br14           5.8410     2.6100    -0.0397 Br      
  15 C15            2.4141    -3.8699     1.0516 C.3     
  16 H16            4.1920     0.1623    -0.0368 H       
  17 H17            3.4724     4.3671    -0.0069 H       
  18 H18            1.0499     3.9784     0.0132 H       
  19 H19           -2.1157    -0.2667     0.0217 H       
  20 H20           -1.2217    -1.5116    -0.8834 H       
  21 H21           -1.2040    -1.5205     0.8964 H       
  22 H22            2.5528    -4.2709     2.0556 H       
  23 H23            1.6673    -4.4629     0.5235 H       
  24 H24            3.3593    -3.9104     0.5104 H       
@<TRIPOS>BOND
   1    1    2 1
   2    1    5 1
   3    2    3 2
   4    2   13 1
   5    3    4 1
   6    3   10 1
   7    4    5 ar
   8    4    6 ar
   9    5    9 ar
  10    6    7 ar
  11    6   16 1
  12    7    8 ar
  13    7   14 1
  14    8    9 ar
  15    8   17 1
  16    9   18 1
  17   10   11 2
  18   10   12 1
  19   12   15 1
  20   13   19 1
  21   13   20 1
  22   13   21 1
  23   15   22 1
  24   15   23 1
  25   15   24 1

#	End of record

