#	Name: ASD02120018
#	Creating user name:	WinNT
#	Creation time:	15. 06. 2019 20:18

#	Modifying user name:	WinNT
#	Modification time:	15. 06. 2019 20:18

#	Program:	/corina/corina34_cracker 3.40 0067  02.08.2006

@<TRIPOS>MOLECULE
ASD02120018
 188  192    0    0    0
SMALL
NO_CHARGES


@<TRIPOS>ATOM
   1 C1             2.4846     0.2658    -1.1706 C.3     
   2 C2             1.8097    -1.0718    -1.3319 C.2     
   3 C3             3.9402     0.0552    -0.7490 C.3     
   4 C4             1.7558     1.0788    -0.0989 C.3     
   5 C5             4.1341     0.5531     0.6846 C.3     
   6 C6             5.5820     1.0093     0.8749 C.3     
   7 C7             6.2661     0.1179     1.9133 C.3     
   8 C8             7.6942     0.6132     2.1499 C.3     
   9 C9             8.5422    -0.5269     2.7173 C.3     
  10 C10            9.8400     0.0267     3.2466 C.2     
  11 C11           10.8668    -0.7671     3.4256 C.2     
  12 C12           10.7507    -2.2343     3.1022 C.3     
  13 O13            1.9167    -1.9227    -0.4744 O.2     
  14 C14            3.3156    -8.8714    -4.7444 C.3     
  15 C15            4.7781    -9.0783    -5.0436 C.2     
  16 O16            5.3027    -8.5011    -5.9724 O.2     
  17 C17           12.6975    -5.1430     2.1522 C.3     
  18 C18           11.6893    -5.8488     3.0220 C.2     
  19 O19           10.5872    -5.3693     3.1843 O.2     
  20 C20           12.1418    -3.7840     1.7218 C.3     
  21 C21           13.9975    -4.9417     2.9333 C.3     
  22 C22           12.1484    -2.8284     2.9166 C.3     
  23 C23            3.0836    -8.9565    -3.2345 C.3     
  24 C24            4.0396    -8.0315    -2.5265 C.2     
  25 C25            5.3780    -8.0339    -2.6308 C.2     
  26 N26            5.9091    -7.0507    -1.8412 N.pl3   
  27 C27            4.8999    -6.3746    -1.1930 C.ar    
  28 C28            3.6844    -6.9550    -1.5986 C.ar    
  29 C29            4.8817    -5.3122    -0.2950 C.ar    
  30 C30            3.6793    -4.8466     0.1896 C.ar    
  31 C31            2.4827    -5.4269    -0.2089 C.ar    
  32 C32            2.4770    -6.4664    -1.0956 C.ar    
  33 C33            4.0700     4.9295    -2.9516 C.2     
  34 C34            4.1787     6.4099    -2.6915 C.3     
  35 O35            4.9608     4.1851    -2.6003 O.2     
  36 N36            9.0140    -9.9417    -3.2726 N.am    
  37 C37            9.7116   -10.2158    -1.9976 C.3     
  38 C38           10.8406    -9.2308    -1.8396 C.2     
  39 C39           10.2725   -11.6391    -2.0153 C.3     
  40 O40           11.4321    -8.8132    -2.8125 O.2     
  41 C41           -1.0579    -2.4877    -2.7847 C.3     
  42 C42            0.4447    -2.6456    -2.5435 C.3     
  43 C43            1.0645    -3.3997    -3.6917 C.2     
  44 N44            1.0762    -1.3108    -2.4568 N.am    
  45 O45            1.5852    -2.8015    -4.6093 O.2     
  46 C46            2.8634    -4.6371    -5.3189 C.3     
  47 C47            1.6556    -5.4430    -4.8365 C.3     
  48 C48            2.1044    -6.8154    -4.4049 C.2     
  49 N49            1.0331    -4.7598    -3.6859 N.am    
  50 O50            1.7497    -7.2735    -3.3395 O.2     
  51 C51            3.5724    -5.3985    -6.4091 C.ar    
  52 C52            2.9755    -5.5474    -7.6473 C.ar    
  53 C53            3.6235    -6.2450    -8.6483 C.ar    
  54 C54            4.8741    -6.7963    -8.4103 C.ar    
  55 C55            5.4708    -6.6455    -7.1670 C.ar    
  56 C56            4.8212    -5.9422    -6.1711 C.ar    
  57 O57            5.5133    -7.4833    -9.3933 O.3     
  58 N58            2.9161    -7.5339    -5.2331 N.am    
  59 C59            4.0457     2.5433    -4.7070 C.3     
  60 C60            2.8775     2.9936    -3.8276 C.3     
  61 C61            2.9184     2.2491    -2.5180 C.2     
  62 N62            2.9831     4.4328    -3.5747 N.am    
  63 O63            3.3776     2.7835    -1.5308 O.2     
  64 C64            3.9355     3.1952    -6.0612 C.ar    
  65 C65            4.5365     4.4188    -6.2903 C.ar    
  66 C66            4.4353     5.0167    -7.5325 C.ar    
  67 C67            3.7335     4.3909    -8.5458 C.ar    
  68 C68            3.1333     3.1669    -8.3170 C.ar    
  69 C69            3.2381     2.5669    -7.0760 C.ar    
  70 N70            2.4448     0.9895    -2.4438 N.am    
  71 C71           10.0669    -8.4856     3.7844 C.3     
  72 C72           11.0782    -7.6381     4.5589 C.3     
  73 C73           11.8412    -8.5168     5.5164 C.2     
  74 N74           12.0125    -7.0128     3.6196 N.am    
  75 O75           13.0467    -8.6114     5.4233 O.2     
  76 N76           11.1840    -9.1974     6.4762 N.am    
  77 C77            7.4428    -8.8101    -5.2752 C.3     
  78 C78            6.9296   -10.0824    -4.5978 C.3     
  79 C79            7.7072   -10.3284    -3.3306 C.2     
  80 N80            5.5024    -9.9205    -4.2582 N.am    
  81 O81            7.1797   -10.8621    -2.3778 O.2     
  82 C82            7.0010    -7.5884    -4.4670 C.3     
  83 C83            7.5669    -6.3401    -5.0937 C.2     
  84 O84            8.2532    -6.4196    -6.0849 O.2     
  85 O85            7.3085    -5.1401    -4.5506 O.3     
  86 C86           12.3295    -6.9772    -1.7562 C.3     
  87 C87           12.3022    -7.8502    -0.5000 C.3     
  88 C88           12.0964    -6.9814     0.7140 C.2     
  89 N89           11.1883    -8.8141    -0.5920 N.am    
  90 O90           11.1765    -7.1938     1.4753 O.2     
  91 C91           10.9078    -6.5225    -2.0922 C.3     
  92 C92           10.4228    -5.5363    -1.0277 C.3     
  93 C93           10.9010    -5.8393    -3.4612 C.3     
  94 N94           12.9620    -5.9523     0.9429 N.am    
  95 H95            4.1835    -1.0060    -0.8011 H       
  96 H96            4.5964     0.6114    -1.4185 H       
  97 H97            1.7554     0.5248     0.8398 H       
  98 H98            2.2644     2.0325     0.0422 H       
  99 H99            0.7282     1.2584    -0.4152 H       
 100 H100           3.4617     1.3901     0.8725 H       
 101 H101           3.9128    -0.2544     1.3826 H       
 102 H102           6.1137     0.9357    -0.0737 H       
 103 H103           5.5947     2.0434     1.2191 H       
 104 H104           5.7084     0.1566     2.8491 H       
 105 H105           6.2934    -0.9091     1.5490 H       
 106 H106           8.1230     0.9500     1.2061 H       
 107 H107           7.6788     1.4417     2.8580 H       
 108 H108           7.9991    -1.0159     3.5260 H       
 109 H109           8.7506    -1.2512     1.9298 H       
 110 H110           9.9239     1.0781     3.4790 H       
 111 H111          11.7965    -0.3697     3.8052 H       
 112 H112          10.2435    -2.7474     3.9194 H       
 113 H113          10.1777    -2.3596     2.1835 H       
 114 H114           2.7270    -9.6364    -5.2508 H       
 115 H115          12.7621    -3.3737     0.9250 H       
 116 H116          11.1208    -3.9069     1.3605 H       
 117 H117          14.4469    -5.9116     3.1471 H       
 118 H118          14.6891    -4.3437     2.3399 H       
 119 H119          13.7828    -4.4265     3.8696 H       
 120 H120          12.8632    -2.0256     2.7358 H       
 121 H121          12.4339    -3.3734     3.8163 H       
 122 H122           2.0587    -8.6631    -3.0073 H       
 123 H123           3.2517    -9.9796    -2.8982 H       
 124 H124           5.9506    -8.7118    -3.2464 H       
 125 H125           6.8557    -6.8589    -1.7512 H       
 126 H126           5.8072    -4.8542     0.0214 H       
 127 H127           3.6673    -4.0220     0.8870 H       
 128 H128           1.5486    -5.0501     0.1808 H       
 129 H129           1.5423    -6.9129    -1.4011 H       
 130 H130           5.1191     6.6214    -2.1826 H       
 131 H131           4.1490     6.9484    -3.6387 H       
 132 H132           3.3464     6.7308    -2.0650 H       
 133 H133           9.4581    -9.5133    -4.0210 H       
 134 H134           9.0132   -10.1061    -1.1680 H       
 135 H135          10.9751   -11.7425    -2.8422 H       
 136 H136          10.7861   -11.8390    -1.0749 H       
 137 H137           9.4558   -12.3499    -2.1415 H       
 138 H138          -1.5188    -3.4724    -2.8622 H       
 139 H139          -1.5040    -1.9421    -1.9532 H       
 140 H140          -1.2213    -1.9362    -3.7106 H       
 141 H141           0.6106    -3.1896    -1.6137 H       
 142 H142           0.9747    -0.6465    -3.1563 H       
 143 H143           2.5270    -3.6756    -5.7069 H       
 144 H144           3.5472    -4.4736    -4.4860 H       
 145 H145           0.9297    -5.5319    -5.6447 H       
 146 H146           0.6220    -5.2561    -2.9609 H       
 147 H147           2.0018    -5.1183    -7.8320 H       
 148 H148           3.1567    -6.3613    -9.6153 H       
 149 H149           6.4444    -7.0737    -6.9793 H       
 150 H150           5.2873    -5.8207    -5.2044 H       
 151 H151           6.0802    -6.9343    -9.9521 H       
 152 H152           3.2132    -7.1887    -6.0895 H       
 153 H153           4.9861     2.8345    -4.2390 H       
 154 H154           4.0173     1.4597    -4.8220 H       
 155 H155           1.9370     2.7822    -4.3365 H       
 156 H156           2.2707     5.0281    -3.8557 H       
 157 H157           5.0848     4.9077    -5.4986 H       
 158 H158           4.9043     5.9731    -7.7112 H       
 159 H159           3.6539     4.8584    -9.5161 H       
 160 H160           2.5847     2.6781    -9.1085 H       
 161 H161           2.7723     1.6088    -6.8984 H       
 162 H162           2.0775     0.5622    -3.2333 H       
 163 H163          10.5934    -9.2597     3.2262 H       
 164 H164           9.3718    -8.9508     4.4833 H       
 165 H165           9.5150    -7.8500     3.0919 H       
 166 H166          10.5516    -6.8640     5.1171 H       
 167 H167          12.8636    -7.4366     3.4276 H       
 168 H168          10.2198    -9.1217     6.5507 H       
 169 H169          11.6751    -9.7630     7.0925 H       
 170 H170           8.5313    -8.8386    -5.3248 H       
 171 H171           7.0346    -8.7456    -6.2838 H       
 172 H172           7.0508   -10.9310    -5.2711 H       
 173 H173           5.1005   -10.3918    -3.5117 H       
 174 H174           5.9125    -7.5307    -4.4614 H       
 175 H175           7.3653    -7.6785    -3.4437 H       
 176 H176           7.6934    -4.3683    -4.9880 H       
 177 H177          12.9577    -6.1044    -1.5786 H       
 178 H178          12.7335    -7.5522    -2.5895 H       
 179 H179          13.2449    -8.3894    -0.4075 H       
 180 H180          10.7264    -9.1346     0.1985 H       
 181 H181          10.2453    -7.3877    -2.1147 H       
 182 H182           9.4525    -5.1345    -1.3198 H       
 183 H183          10.3300    -6.0507    -0.0712 H       
 184 H184          11.1403    -4.7212    -0.9337 H       
 185 H185          11.2465    -6.5418    -4.2196 H       
 186 H186           9.8882    -5.5153    -3.7006 H       
 187 H187          11.5635    -4.9740    -3.4387 H       
 188 H188          13.7052    -5.7628     0.3489 H       
@<TRIPOS>BOND
   1    1    2 1
   2    1    3 1
   3    1    4 1
   4    1   70 1
   5    2   13 2
   6    2   44 am
   7    3    5 1
   8    3   95 1
   9    3   96 1
  10    4   97 1
  11    4   98 1
  12    4   99 1
  13    5    6 1
  14    5  100 1
  15    5  101 1
  16    6    7 1
  17    6  102 1
  18    6  103 1
  19    7    8 1
  20    7  104 1
  21    7  105 1
  22    8    9 1
  23    8  106 1
  24    8  107 1
  25    9   10 1
  26    9  108 1
  27    9  109 1
  28   10   11 2
  29   10  110 1
  30   11   12 1
  31   11  111 1
  32   12   22 1
  33   12  112 1
  34   12  113 1
  35   14   15 1
  36   14   23 1
  37   14   58 1
  38   14  114 1
  39   15   16 2
  40   15   80 am
  41   17   18 1
  42   17   20 1
  43   17   21 1
  44   17   94 1
  45   18   19 2
  46   18   74 am
  47   20   22 1
  48   20  115 1
  49   20  116 1
  50   21  117 1
  51   21  118 1
  52   21  119 1
  53   22  120 1
  54   22  121 1
  55   23   24 1
  56   23  122 1
  57   23  123 1
  58   24   25 2
  59   24   28 1
  60   25   26 1
  61   25  124 1
  62   26   27 1
  63   26  125 1
  64   27   28 ar
  65   27   29 ar
  66   28   32 ar
  67   29   30 ar
  68   29  126 1
  69   30   31 ar
  70   30  127 1
  71   31   32 ar
  72   31  128 1
  73   32  129 1
  74   33   35 2
  75   33   62 am
  76   33   34 1
  77   34  130 1
  78   34  131 1
  79   34  132 1
  80   36   37 1
  81   36   79 am
  82   36  133 1
  83   37   38 1
  84   37   39 1
  85   37  134 1
  86   38   40 2
  87   38   89 am
  88   39  135 1
  89   39  136 1
  90   39  137 1
  91   41   42 1
  92   41  138 1
  93   41  139 1
  94   41  140 1
  95   42   43 1
  96   42   44 1
  97   42  141 1
  98   43   45 2
  99   43   49 am
 100   44  142 1
 101   46   51 1
 102   46   47 1
 103   46  143 1
 104   46  144 1
 105   47   48 1
 106   47   49 1
 107   47  145 1
 108   48   50 2
 109   48   58 am
 110   49  146 1
 111   51   52 ar
 112   51   56 ar
 113   52   53 ar
 114   52  147 1
 115   53   54 ar
 116   53  148 1
 117   54   55 ar
 118   54   57 1
 119   55   56 ar
 120   55  149 1
 121   56  150 1
 122   57  151 1
 123   58  152 1
 124   59   64 1
 125   59   60 1
 126   59  153 1
 127   59  154 1
 128   60   61 1
 129   60   62 1
 130   60  155 1
 131   61   63 2
 132   61   70 am
 133   62  156 1
 134   64   65 ar
 135   64   69 ar
 136   65   66 ar
 137   65  157 1
 138   66   67 ar
 139   66  158 1
 140   67   68 ar
 141   67  159 1
 142   68   69 ar
 143   68  160 1
 144   69  161 1
 145   70  162 1
 146   71   72 1
 147   71  163 1
 148   71  164 1
 149   71  165 1
 150   72   73 1
 151   72   74 1
 152   72  166 1
 153   73   75 2
 154   73   76 am
 155   74  167 1
 156   76  168 1
 157   76  169 1
 158   77   82 1
 159   77   78 1
 160   77  170 1
 161   77  171 1
 162   78   80 1
 163   78   79 1
 164   78  172 1
 165   79   81 2
 166   80  173 1
 167   82   83 1
 168   82  174 1
 169   82  175 1
 170   83   84 2
 171   83   85 1
 172   85  176 1
 173   86   91 1
 174   86   87 1
 175   86  177 1
 176   86  178 1
 177   87   89 1
 178   87   88 1
 179   87  179 1
 180   88   90 2
 181   88   94 am
 182   89  180 1
 183   91   92 1
 184   91   93 1
 185   91  181 1
 186   92  182 1
 187   92  183 1
 188   92  184 1
 189   93  185 1
 190   93  186 1
 191   93  187 1
 192   94  188 1

#	End of record

