#	Name: ASD01882611
#	Creating user name:	WinNT
#	Creation time:	15. 06. 2019 19:44

#	Modifying user name:	WinNT
#	Modification time:	15. 06. 2019 19:44

#	Program:	/corina/corina34_cracker 3.40 0067  02.08.2006

@<TRIPOS>MOLECULE
ASD01882611
  49   52    0    0    0
SMALL
NO_CHARGES


@<TRIPOS>ATOM
   1 C1            -1.8960     1.3241     0.4001 C.3     
   2 C2            -1.7759    -0.1882     0.5631 C.3     
   3 C3            -0.3974    -0.7030     0.1675 C.3     
   4 C4             0.7270     0.0868     0.8262 C.3     
   5 C5             0.5503     1.5929     0.6570 C.3     
   6 C6             0.6830     2.0240    -0.7955 C.3     
   7 C7            -0.4459     1.4929    -1.6697 C.3     
   8 C8            -1.8173     1.7496    -1.0580 C.3     
   9 C9            -0.8064     2.0060     1.2276 C.3     
  10 C10           -0.9687     3.5041     1.2052 C.ar    
  11 C11           -2.2277     4.0601     1.0735 C.ar    
  12 C12           -2.3791     5.4330     1.0527 C.ar    
  13 C13           -1.2665     6.2542     1.1641 C.ar    
  14 C14           -0.0042     5.6939     1.2961 C.ar    
  15 C15            0.1412     4.3203     1.3221 C.ar    
  16 O16           -1.4127     7.6051     1.1434 O.3     
  17 C17           -0.2234     8.3883     1.2629 C.3     
  18 C18           -0.5795     9.8520     1.2202 C.ar    
  19 C19           -0.8656    10.5282     2.3914 C.ar    
  20 C20           -1.1922    11.8709     2.3522 C.ar    
  21 C21           -1.2323    12.5374     1.1418 C.ar    
  22 C22           -0.9452    11.8614    -0.0293 C.ar    
  23 C23           -0.6144    10.5198     0.0103 C.ar    
  24 H24           -2.8730     1.6359     0.8019 H       
  25 H25           -1.9729    -0.4522     1.6075 H       
  26 H26           -2.5345    -0.6763    -0.0579 H       
  27 H27           -0.3208    -1.7487     0.5322 H       
  28 H28           -0.2788    -0.7568    -0.9035 H       
  29 H29            0.7569    -0.1520     1.8946 H       
  30 H30            1.6838    -0.2129     0.3857 H       
  31 H31            1.3337     2.0982     1.2436 H       
  32 H32            0.7195     3.1139    -0.8659 H       
  33 H33            1.6379     1.6442    -1.1895 H       
  34 H34           -0.4059     2.0478    -2.6304 H       
  35 H35           -0.3051     0.4541    -1.9251 H       
  36 H36           -2.5667     1.1827    -1.6310 H       
  37 H37           -2.0715     2.8076    -1.1587 H       
  38 H38           -0.8764     1.6533     2.2624 H       
  39 H39           -3.0936     3.4204     0.9864 H       
  40 H40           -3.3628     5.8668     0.9494 H       
  41 H41            0.8635     6.3310     1.3830 H       
  42 H42            1.1232     3.8837     1.4296 H       
  43 H43            0.2676     8.1613     2.2092 H       
  44 H44            0.4502     8.1540     0.4387 H       
  45 H45           -0.8343    10.0075     3.3370 H       
  46 H46           -1.4165    12.3990     3.2671 H       
  47 H47           -1.4881    13.5862     1.1111 H       
  48 H48           -0.9768    12.3820    -0.9750 H       
  49 H49           -0.3865     9.9925    -0.9043 H       
@<TRIPOS>BOND
   1    1    2 1
   2    1    8 1
   3    1    9 1
   4    1   24 1
   5    2    3 1
   6    2   25 1
   7    2   26 1
   8    3    4 1
   9    3   27 1
  10    3   28 1
  11    4    5 1
  12    4   29 1
  13    4   30 1
  14    5    6 1
  15    5    9 1
  16    5   31 1
  17    6    7 1
  18    6   32 1
  19    6   33 1
  20    7    8 1
  21    7   34 1
  22    7   35 1
  23    8   36 1
  24    8   37 1
  25    9   10 1
  26    9   38 1
  27   10   11 ar
  28   10   15 ar
  29   11   12 ar
  30   11   39 1
  31   12   13 ar
  32   12   40 1
  33   13   14 ar
  34   13   16 1
  35   14   15 ar
  36   14   41 1
  37   15   42 1
  38   16   17 1
  39   17   18 1
  40   17   43 1
  41   17   44 1
  42   18   19 ar
  43   18   23 ar
  44   19   20 ar
  45   19   45 1
  46   20   21 ar
  47   20   46 1
  48   21   22 ar
  49   21   47 1
  50   22   23 ar
  51   22   48 1
  52   23   49 1

#	End of record

