#	Name: ASD01140355
#	Creating user name:	WinNT
#	Creation time:	15. 06. 2019 19:00

#	Modifying user name:	WinNT
#	Modification time:	15. 06. 2019 19:00

#	Program:	/corina/corina34_cracker 3.40 0067  02.08.2006

@<TRIPOS>MOLECULE
ASD01140355
  29   32    0    0    0
SMALL
NO_CHARGES


@<TRIPOS>ATOM
   1 N1            -0.0165     1.3628     0.0095 N.pl3   
   2 C2             0.0021    -0.0041     0.0020 C.2     
   3 C3             1.2440    -0.8628    -0.0465 C.3     
   4 N4             1.9825    -0.4792    -1.2555 N.pl3   
   5 C5             2.4123     0.7679    -1.5431 C.2     
   6 C6             2.2375     1.9846    -0.7246 C.ar    
   7 C7             1.0755     2.2363     0.0038 C.ar    
   8 C8             3.2882     2.9093    -0.6874 C.ar    
   9 C9             3.1769     4.0595     0.0662 C.ar    
  10 C10            2.0217     4.3041     0.7920 C.ar    
  11 C11            0.9796     3.4009     0.7612 C.ar    
  12 N12            2.3737    -1.3044    -2.3137 N.2     
  13 C13            3.0049    -0.5410    -3.1705 C.2     
  14 N14            3.0299     0.7068    -2.7098 N.2     
  15 C15           -1.3261     1.7338     0.0355 C.2     
  16 N16           -2.0643     0.6572     0.0554 N.2     
  17 C17           -1.2714    -0.4262     0.0357 C.2     
  18 C18           -1.7301    -1.8616     0.0482 C.3     
  19 F19           -1.8373    -2.3054     1.3706 F       
  20 F20            4.1945     4.9477     0.0970 F       
  21 H21            1.8564    -0.6816     0.8367 H       
  22 H22            0.9665    -1.9156    -0.0984 H       
  23 H23            4.1901     2.7212    -1.2510 H       
  24 H24            1.9374     5.2039     1.3834 H       
  25 H25            0.0825     3.5983     1.3292 H       
  26 H26            3.4371    -0.8721    -4.1032 H       
  27 H27           -1.6933     2.7495     0.0392 H       
  28 H28           -2.7016    -1.9369    -0.4402 H       
  29 H29           -1.0068    -2.4789    -0.4846 H       
@<TRIPOS>BOND
   1    1    2 1
   2    1    7 1
   3    1   15 1
   4    2    3 1
   5    2   17 2
   6    3    4 1
   7    3   21 1
   8    3   22 1
   9    4    5 1
  10    4   12 1
  11    5    6 1
  12    5   14 2
  13    6    7 ar
  14    6    8 ar
  15    7   11 ar
  16    8    9 ar
  17    8   23 1
  18    9   10 ar
  19    9   20 1
  20   10   11 ar
  21   10   24 1
  22   11   25 1
  23   12   13 2
  24   13   14 1
  25   13   26 1
  26   15   16 2
  27   15   27 1
  28   16   17 1
  29   17   18 1
  30   18   19 1
  31   18   28 1
  32   18   29 1

#	End of record

