#	Name: ASD03081004
#	Creating user name:	WinNT
#	Creation time:	15. 06. 2019 20:26

#	Modifying user name:	WinNT
#	Modification time:	15. 06. 2019 20:26

#	Program:	/corina/corina34_cracker 3.40 0067  02.08.2006

@<TRIPOS>MOLECULE
ASD03081004
  19   19    0    0    0
SMALL
NO_CHARGES


@<TRIPOS>ATOM
   1 C1            -0.0180     1.4765     0.0102 C.2     
   2 C2             0.0021    -0.0041     0.0020 C.ar    
   3 C3             1.2164    -0.6850    -0.0132 C.ar    
   4 C4             1.2267    -2.0788    -0.0209 C.ar    
   5 C5             0.0198    -2.7829    -0.0132 C.ar    
   6 C6            -1.1800    -2.1007     0.0015 C.ar    
   7 C7            -1.1960    -0.7195     0.0154 C.ar    
   8 N8             1.0994     2.1420     0.0031 N.2     
   9 N9            -1.2264     2.1524     0.0196 N.pl3   
  10 O10            1.0802     3.5579     0.0109 O.3     
  11 C11            2.4710    -2.7874    -0.0370 C.1     
  12 N12            3.4581    -3.3495    -0.0498 N.1     
  13 H13            2.1462    -0.1357    -0.0195 H       
  14 H14            0.0257    -3.8629    -0.0191 H       
  15 H15           -2.1103    -2.6492     0.0067 H       
  16 H16           -2.1383    -0.1919     0.0321 H       
  17 H17           -2.0597     1.6560     0.0208 H       
  18 H18           -1.2395     3.1223     0.0249 H       
  19 H19            1.9581     3.9631     0.0046 H       
@<TRIPOS>BOND
   1    1    2 1
   2    1    8 2
   3    1    9 1
   4    2    3 ar
   5    2    7 ar
   6    3    4 ar
   7    3   13 1
   8    4    5 ar
   9    4   11 1
  10    5    6 ar
  11    5   14 1
  12    6    7 ar
  13    6   15 1
  14    7   16 1
  15    8   10 1
  16    9   17 1
  17    9   18 1
  18   10   19 1
  19   11   12 3

#	End of record

