#	Name: ASD01152014
#	Creating user name:	WinNT
#	Creation time:	15. 06. 2019 19:05

#	Modifying user name:	WinNT
#	Modification time:	15. 06. 2019 19:05

#	Program:	/corina/corina34_cracker 3.40 0067  02.08.2006

@<TRIPOS>MOLECULE
ASD01152014
  51   52    0    0    0
SMALL
NO_CHARGES


@<TRIPOS>ATOM
   1 N1            -0.0158     1.3132     0.0093 N.2     
   2 C2             0.0021    -0.0041     0.0020 C.2     
   3 N3             1.2893    -0.4365    -0.0126 N.pl3   
   4 C4             2.0984     0.7011    -0.0142 C.2     
   5 C5             1.2324     1.7874    -0.0001 C.2     
   6 C6             1.7421    -1.8298    -0.0240 C.3     
   7 S7            -1.4215    -1.0424     0.0106 S.3     
   8 C8            -2.7257     0.2126     0.0295 C.3     
   9 C9             3.5072     0.7397    -0.0275 C.2     
  10 O10            4.0870     1.8107    -0.0272 O.2     
  11 O11            4.2142    -0.4109    -0.0404 O.3     
  12 C12            5.6386    -0.2970    -0.0534 C.3     
  13 C13            6.2619    -1.6942    -0.0668 C.3     
  14 N14            1.5996     3.1280     0.0036 N.am    
  15 C15            0.6520     4.0862     0.0178 C.2     
  16 C16            1.0423     5.5111     0.0217 C.ar    
  17 O17           -0.5239     3.7781     0.0274 O.2     
  18 C18            1.8864    -2.3073    -1.4703 C.3     
  19 C19            0.0629     6.5059     0.0364 C.ar    
  20 C20            0.4340     7.8353     0.0399 C.ar    
  21 C21            1.7758     8.1827     0.0290 C.ar    
  22 C22            2.7512     7.1994     0.0144 C.ar    
  23 C23            2.3925     5.8681     0.0165 C.ar    
  24 Cl24           2.2356     9.8567     0.0329 Cl      
  25 C25            2.3592    -3.7624    -1.4822 C.3     
  26 C26            1.2792    -4.6547    -0.8672 C.3     
  27 C27            2.6231    -4.2011    -2.9240 C.3     
  28 Cl28          -0.7818     9.0744     0.0576 Cl      
  29 H29            2.7055    -1.9028     0.4806 H       
  30 H30            1.0128    -2.4530     0.4934 H       
  31 H31           -2.6226     0.8303     0.9216 H       
  32 H32           -2.6398     0.8392    -0.8583 H       
  33 H33           -3.7000    -0.2761     0.0364 H       
  34 H34            5.9513     0.2490    -0.9435 H       
  35 H35            5.9683     0.2394     0.8364 H       
  36 H36            5.9491    -2.2401     0.8233 H       
  37 H37            5.9321    -2.2306    -0.9566 H       
  38 H38            7.3484    -1.6073    -0.0767 H       
  39 H39            2.5379     3.3738    -0.0041 H       
  40 H40            0.9229    -2.2342    -1.9749 H       
  41 H41            2.6157    -1.6840    -1.9877 H       
  42 H42           -0.9827     6.2359     0.0446 H       
  43 H43            3.7951     7.4761     0.0055 H       
  44 H44            3.1542     5.1026     0.0051 H       
  45 H45            3.2775    -3.8507    -0.9017 H       
  46 H46            1.6161    -5.6913    -0.8756 H       
  47 H47            1.0912    -4.3421     0.1600 H       
  48 H48            0.3609    -4.5663    -1.4477 H       
  49 H49            3.3925    -3.5654    -3.3622 H       
  50 H50            2.9600    -5.2377    -2.9325 H       
  51 H51            1.7048    -4.1128    -3.5045 H       
@<TRIPOS>BOND
   1    1    2 2
   2    1    5 1
   3    2    3 1
   4    2    7 1
   5    3    4 1
   6    3    6 1
   7    4    5 2
   8    4    9 1
   9    5   14 1
  10    6   18 1
  11    6   29 1
  12    6   30 1
  13    7    8 1
  14    8   31 1
  15    8   32 1
  16    8   33 1
  17    9   10 2
  18    9   11 1
  19   11   12 1
  20   12   13 1
  21   12   34 1
  22   12   35 1
  23   13   36 1
  24   13   37 1
  25   13   38 1
  26   14   15 am
  27   14   39 1
  28   15   16 1
  29   15   17 2
  30   16   19 ar
  31   16   23 ar
  32   18   25 1
  33   18   40 1
  34   18   41 1
  35   19   20 ar
  36   19   42 1
  37   20   21 ar
  38   20   28 1
  39   21   22 ar
  40   21   24 1
  41   22   23 ar
  42   22   43 1
  43   23   44 1
  44   25   26 1
  45   25   27 1
  46   25   45 1
  47   26   46 1
  48   26   47 1
  49   26   48 1
  50   27   49 1
  51   27   50 1
  52   27   51 1

#	End of record

