#	Name: ASD02038092
#	Creating user name:	WinNT
#	Creation time:	15. 06. 2019 20:16

#	Modifying user name:	WinNT
#	Modification time:	15. 06. 2019 20:16

#	Program:	/corina/corina34_cracker 3.40 0067  02.08.2006

@<TRIPOS>MOLECULE
ASD02038092
  55   57    0    0    0
SMALL
NO_CHARGES


@<TRIPOS>ATOM
   1 C1            -0.4556     1.2172     1.9511 C.ar    
   2 C2             0.5869     1.4512     2.8306 C.ar    
   3 C3            -0.3608     0.2011     1.0164 C.ar    
   4 C4             0.7750    -0.5826     0.9592 C.ar    
   5 C5             1.8229    -0.3498     1.8408 C.ar    
   6 C6             1.7253     0.6712     2.7773 C.ar    
   7 N7             2.9732    -1.1412     1.7852 N.3     
   8 C8             3.9490    -0.7242     2.8019 C.3     
   9 Cl9           -1.8878     2.1953     2.0252 Cl      
  10 C10            5.1570    -1.6631     2.7612 C.3     
  11 N11            5.7536    -1.6315     1.4185 N.3     
  12 C12            4.7779    -2.0485     0.4018 C.3     
  13 C13            3.5699    -1.1097     0.4426 C.3     
  14 C14            6.9629    -2.4634     1.3601 C.3     
  15 C15            8.0462    -1.8519     2.2509 C.3     
  16 C16            9.2686    -2.7718     2.2719 C.3     
  17 O17            8.4212    -0.5731     1.7351 O.3     
  18 O18           10.2336    -2.2606     3.1935 O.3     
  19 C19           11.3882    -2.9657     3.3330 C.ar    
  20 C20           12.3675    -2.5254     4.2110 C.ar    
  21 C21           13.5400    -3.2411     4.3536 C.ar    
  22 C22           13.7383    -4.4019     3.6177 C.ar    
  23 C23           12.7574    -4.8420     2.7390 C.ar    
  24 C24           11.5832    -4.1279     2.6015 C.ar    
  25 N25           14.9263    -5.1274     3.7613 N.am    
  26 S26           16.0859    -5.0592     2.5810 S.o2    
  27 O27           17.1224    -5.9057     3.0588 O.2     
  28 O28           15.3850    -5.3639     1.3831 O.2     
  29 C29           16.6281    -3.3282     2.5786 C.3     
  30 H30            0.5102     2.2449     3.5590 H       
  31 H31           -1.1758     0.0206     0.3312 H       
  32 H32            0.8482    -1.3759     0.2300 H       
  33 H33            2.5388     0.8546     3.4637 H       
  34 H34            4.2741     0.2958     2.5971 H       
  35 H35            3.4875    -0.7680     3.7884 H       
  36 H36            5.8949    -1.3382     3.4947 H       
  37 H37            4.8362    -2.6787     2.9928 H       
  38 H38            5.2394    -2.0048    -0.5847 H       
  39 H39            4.4528    -3.0686     0.6066 H       
  40 H40            2.8320    -1.4345    -0.2910 H       
  41 H41            3.8907    -0.0940     0.2110 H       
  42 H42            6.7295    -3.4689     1.7102 H       
  43 H43            7.3220    -2.5109     0.3320 H       
  44 H44            7.6610    -1.7364     3.2640 H       
  45 H45            8.9653    -3.7721     2.5809 H       
  46 H46            9.7066    -2.8167     1.2748 H       
  47 H47            8.7735    -0.5999     0.8350 H       
  48 H48           12.2132    -1.6224     4.7830 H       
  49 H49           14.3026    -2.8978     5.0370 H       
  50 H50           12.9108    -5.7447     2.1663 H       
  51 H51           10.8200    -4.4703     1.9184 H       
  52 H52           15.0705    -5.6703     4.5521 H       
  53 H53           17.1084    -3.0965     3.5293 H       
  54 H54           17.3368    -3.1705     1.7656 H       
  55 H55           15.7649    -2.6773     2.4396 H       
@<TRIPOS>BOND
   1    1    2 ar
   2    1    3 ar
   3    1    9 1
   4    2    6 ar
   5    2   30 1
   6    3    4 ar
   7    3   31 1
   8    4    5 ar
   9    4   32 1
  10    5    6 ar
  11    5    7 1
  12    6   33 1
  13    7    8 1
  14    7   13 1
  15    8   10 1
  16    8   34 1
  17    8   35 1
  18   10   11 1
  19   10   36 1
  20   10   37 1
  21   11   12 1
  22   11   14 1
  23   12   13 1
  24   12   38 1
  25   12   39 1
  26   13   40 1
  27   13   41 1
  28   14   15 1
  29   14   42 1
  30   14   43 1
  31   15   17 1
  32   15   16 1
  33   15   44 1
  34   16   18 1
  35   16   45 1
  36   16   46 1
  37   17   47 1
  38   18   19 1
  39   19   20 ar
  40   19   24 ar
  41   20   21 ar
  42   20   48 1
  43   21   22 ar
  44   21   49 1
  45   22   23 ar
  46   22   25 1
  47   23   24 ar
  48   23   50 1
  49   24   51 1
  50   25   26 am
  51   25   52 1
  52   26   27 2
  53   26   28 2
  54   26   29 1
  55   29   53 1
  56   29   54 1
  57   29   55 1

#	End of record

