#	Name: ASD03331932
#	Creating user name:	WinNT
#	Creation time:	15. 06. 2019 20:40

#	Modifying user name:	WinNT
#	Modification time:	15. 06. 2019 20:40

#	Program:	/corina/corina34_cracker 3.40 0067  02.08.2006

@<TRIPOS>MOLECULE
ASD03331932
  70   73    0    0    0
SMALL
NO_CHARGES


@<TRIPOS>ATOM
   1 C1            -0.3232     1.1658     0.8441 C.2     
   2 N2            -0.3536    -0.1674     1.0770 N.pl3   
   3 C3             0.9346    -0.5857     1.2415 C.2     
   4 N4             1.7287     0.4534     1.1339 N.2     
   5 C5             0.9822     1.5527     0.8912 C.2     
   6 C6             1.4890     2.9244     0.7090 C.2     
   7 O7             0.7130     3.8359     0.4941 O.2     
   8 N8             2.8125     3.1689     0.7806 N.am    
   9 C9             3.3163     4.5325     0.5995 C.3     
  10 C10            3.4934     4.8168    -0.8934 C.3     
  11 C11            4.3890     3.7429    -1.5143 C.3     
  12 C12            4.6437     4.6746     1.2987 C.2     
  13 C13            2.1267     4.8012    -1.5811 C.3     
  14 C14            4.1414     6.1904    -1.0777 C.3     
  15 O15            5.2294     3.6889     1.6941 O.2     
  16 N16            5.1799     5.8970     1.4847 N.am    
  17 C17            6.5030     6.0307     2.0995 C.3     
  18 C18           -1.5639    -0.9903     1.1524 C.3     
  19 C19           -2.4710    -0.6603    -0.0370 C.3     
  20 C20           -3.3823     0.5100     0.3189 C.3     
  21 N21           -2.7038     1.4515     1.2121 N.3     
  22 C22           -1.5197     2.0394     0.5686 C.3     
  23 C23           -3.6262     2.4976     1.6733 C.3     
  24 C24            1.3643    -1.9781     1.4990 C.ar    
  25 C25            2.6156    -2.4134     1.0688 C.ar    
  26 C26            3.0123    -3.7240     1.3147 C.ar    
  27 C27            2.1569    -4.5939     1.9893 C.ar    
  28 C28            0.9167    -4.1576     2.4135 C.ar    
  29 C29            0.5189    -2.8568     2.1786 C.ar    
  30 C30            4.3437    -4.1954     0.8591 C.ar    
  31 C31            4.7424    -5.5077     1.1046 C.ar    
  32 C32            5.1972    -3.3290     0.1793 C.ar    
  33 C33            5.9815    -5.9410     0.6783 C.ar    
  34 C34            6.8272    -5.0750     0.0088 C.ar    
  35 C35            6.4341    -3.7728    -0.2426 C.ar    
  36 H36            3.4314     2.4419     0.9520 H       
  37 H37            2.6050     5.2418     1.0226 H       
  38 H38            3.9274     2.7643    -1.3831 H       
  39 H39            4.5151     3.9454    -2.5779 H       
  40 H40            5.3626     3.7540    -1.0244 H       
  41 H41            1.4886     5.5662    -1.1388 H       
  42 H42            2.2528     5.0037    -2.6447 H       
  43 H43            1.6650     3.8225    -1.4498 H       
  44 H44            5.1002     6.2123    -0.5598 H       
  45 H45            4.2978     6.3788    -2.1398 H       
  46 H46            3.4878     6.9588    -0.6648 H       
  47 H47            4.6899     6.6883     1.2116 H       
  48 H48            7.2411     5.5093     1.4900 H       
  49 H49            6.7674     7.0860     2.1667 H       
  50 H50            6.4848     5.5962     3.0990 H       
  51 H51           -1.2900    -2.0449     1.1201 H       
  52 H52           -2.0912    -0.7783     2.0825 H       
  53 H53           -1.8575    -0.3934    -0.8976 H       
  54 H54           -3.0786    -1.5314    -0.2822 H       
  55 H55           -3.6719     1.0289    -0.5949 H       
  56 H56           -4.2768     0.1298     0.8123 H       
  57 H57           -1.3433     3.0366     0.9717 H       
  58 H58           -1.6838     2.1038    -0.5070 H       
  59 H59           -4.4549     2.0392     2.2130 H       
  60 H60           -3.0967     3.1831     2.3349 H       
  61 H61           -4.0116     3.0467     0.8142 H       
  62 H62            3.2750    -1.7364     0.5462 H       
  63 H63            2.4644    -5.6114     2.1804 H       
  64 H64            0.2577    -4.8356     2.9354 H       
  65 H65           -0.4516    -2.5211     2.5128 H       
  66 H66            4.0832    -6.1845     1.6278 H       
  67 H67            4.8913    -2.3121    -0.0176 H       
  68 H68            6.2916    -6.9580     0.8680 H       
  69 H69            7.7962    -5.4180    -0.3224 H       
  70 H70            7.0981    -3.1009    -0.7660 H       
@<TRIPOS>BOND
   1    1    2 1
   2    1    5 2
   3    1   22 1
   4    2    3 1
   5    2   18 1
   6    3    4 2
   7    3   24 1
   8    4    5 1
   9    5    6 1
  10    6    7 2
  11    6    8 am
  12    8    9 1
  13    8   36 1
  14    9   10 1
  15    9   12 1
  16    9   37 1
  17   10   11 1
  18   10   13 1
  19   10   14 1
  20   11   38 1
  21   11   39 1
  22   11   40 1
  23   12   15 2
  24   12   16 am
  25   13   41 1
  26   13   42 1
  27   13   43 1
  28   14   44 1
  29   14   45 1
  30   14   46 1
  31   16   17 1
  32   16   47 1
  33   17   48 1
  34   17   49 1
  35   17   50 1
  36   18   19 1
  37   18   51 1
  38   18   52 1
  39   19   20 1
  40   19   53 1
  41   19   54 1
  42   20   21 1
  43   20   55 1
  44   20   56 1
  45   21   22 1
  46   21   23 1
  47   22   57 1
  48   22   58 1
  49   23   59 1
  50   23   60 1
  51   23   61 1
  52   24   25 ar
  53   24   29 ar
  54   25   26 ar
  55   25   62 1
  56   26   27 ar
  57   26   30 1
  58   27   28 ar
  59   27   63 1
  60   28   29 ar
  61   28   64 1
  62   29   65 1
  63   30   31 ar
  64   30   32 ar
  65   31   33 ar
  66   31   66 1
  67   32   35 ar
  68   32   67 1
  69   33   34 ar
  70   33   68 1
  71   34   35 ar
  72   34   69 1
  73   35   70 1

#	End of record

