#	Name: ASD02320009
#	Creating user name:	WinNT
#	Creation time:	15. 06. 2019 20:20

#	Modifying user name:	WinNT
#	Modification time:	15. 06. 2019 20:20

#	Program:	/corina/corina34_cracker 3.40 0067  02.08.2006

@<TRIPOS>MOLECULE
ASD02320009
  46   47    0    0    0
SMALL
NO_CHARGES


@<TRIPOS>ATOM
   1 C1            -0.0168     1.3842     0.0097 C.ar    
   2 C2             0.0021    -0.0041     0.0020 C.ar    
   3 C3             1.2171    -0.6893    -0.0128 C.ar    
   4 C4             2.4057     0.0125    -0.0203 C.ar    
   5 C5             2.3879     1.4128    -0.0131 C.ar    
   6 C6             1.1647     2.0928     0.0022 C.ar    
   7 C7             3.6300     3.5171    -0.0136 C.2     
   8 C8             3.6495     2.1658    -0.0206 C.2     
   9 C9             3.6447     6.4247     0.0009 C.ar    
  10 C10            4.8640     5.7404    -0.0134 C.ar    
  11 C11            4.8853     4.2663    -0.0211 C.2     
  12 C12            3.6290     7.8005     0.0076 C.ar    
  13 C13            4.8231     8.5151     0.0000 C.ar    
  14 C14            6.0386     7.8461    -0.0142 C.ar    
  15 C15            6.0676     6.4626    -0.0210 C.ar    
  16 O16            5.9489     3.6726    -0.0336 O.2     
  17 O17            7.2551     5.8066    -0.0345 O.3     
  18 S18            7.8091     5.5007     1.3497 S.o2    
  19 O19            9.1262     5.0044     1.1540 O.2     
  20 O20            7.5171     6.6325     2.1578 O.2     
  21 O21            6.9946     4.3465     1.9160 O.3     
  22 Na22           7.4346     2.5773     1.1182 Du      
  23 O23           -1.1660    -0.6971     0.0094 O.3     
  24 C24           -2.3735     0.0669     0.0250 C.3     
  25 O25            1.2305    -2.0491    -0.0193 O.3     
  26 C26            2.5101    -2.6852    -0.0345 C.3     
  27 O27            4.7986     9.8720     0.0062 O.3     
  28 S28            4.7999    10.4849     1.3993 S.o2    
  29 O29            4.5707    11.8765     1.2257 O.2     
  30 O30            3.9725     9.6553     2.2034 O.2     
  31 O31            6.2118    10.3473     1.9508 O.3     
  32 Na32           7.5178    11.6231     1.1591 Du      
  33 H33           -0.9601     1.9100     0.0170 H       
  34 H34            3.3470    -0.5170    -0.0314 H       
  35 H35            1.1470     3.1727     0.0074 H       
  36 H36            2.6870     4.0435    -0.0025 H       
  37 H37            4.5925     1.6394    -0.0317 H       
  38 H38            2.7159     5.8738     0.0024 H       
  39 H39            2.6865     8.3277     0.0183 H       
  40 H40            6.9625     8.4054    -0.0204 H       
  41 H41           -2.3973     0.6906     0.9186 H       
  42 H42           -2.4143     0.7002    -0.8612 H       
  43 H43           -3.2299    -0.6073     0.0296 H       
  44 H44            3.0557    -2.3826    -0.9283 H       
  45 H45            3.0726    -2.3910     0.8516 H       
  46 H46            2.3780    -3.7672    -0.0383 H       
@<TRIPOS>BOND
   1    1    2 ar
   2    1    6 ar
   3    1   33 1
   4    2    3 ar
   5    2   23 1
   6    3    4 ar
   7    3   25 1
   8    4    5 ar
   9    4   34 1
  10    5    6 ar
  11    5    8 1
  12    6   35 1
  13    7    8 2
  14    7   11 1
  15    7   36 1
  16    8   37 1
  17    9   10 ar
  18    9   12 ar
  19    9   38 1
  20   10   11 1
  21   10   15 ar
  22   11   16 2
  23   12   13 ar
  24   12   39 1
  25   13   14 ar
  26   13   27 1
  27   14   15 ar
  28   14   40 1
  29   15   17 1
  30   17   18 1
  31   18   19 2
  32   18   20 2
  33   18   21 1
  34   21   22 1
  35   23   24 1
  36   24   41 1
  37   24   42 1
  38   24   43 1
  39   25   26 1
  40   26   44 1
  41   26   45 1
  42   26   46 1
  43   27   28 1
  44   28   29 2
  45   28   30 2
  46   28   31 1
  47   31   32 1

#	End of record

