#	Name: ASD03091119
#	Creating user name:	WinNT
#	Creation time:	15. 06. 2019 20:30

#	Modifying user name:	WinNT
#	Modification time:	15. 06. 2019 20:30

#	Program:	/corina/corina34_cracker 3.40 0067  02.08.2006

@<TRIPOS>MOLECULE
ASD03091119
  39   41    0    0    0
SMALL
NO_CHARGES


@<TRIPOS>ATOM
   1 C1            -0.0405     1.4197    -0.5628 C.2     
   2 C2            -0.0089    -0.0305    -0.2760 C.ar    
   3 C3             1.2132    -0.6868    -0.1180 C.ar    
   4 C4             1.2402    -2.0401     0.1496 C.ar    
   5 C5             0.0599    -2.7509     0.2628 C.ar    
   6 C6            -1.1620    -2.1071     0.1073 C.ar    
   7 C7            -1.1998    -0.7462    -0.1567 C.ar    
   8 O8             0.5165     1.8560    -1.5511 O.2     
   9 N9            -0.6916     2.2570     0.2687 N.am    
  10 N10            2.4801     0.0693    -0.2381 N.pl3   
  11 O11            3.5455    -0.5209    -0.2214 O.2     
  12 O12            2.4573     1.2815    -0.3536 O.2     
  13 C13           -0.7229     3.6938    -0.0155 C.3     
  14 N14           -2.3521    -2.8299     0.2220 N.3     
  15 C15           -3.2130    -2.6307    -0.9717 C.3     
  16 C16           -4.6320    -3.0092    -0.4990 C.3     
  17 C17           -4.6060    -2.8076     1.0402 C.3     
  18 C18           -3.1738    -2.3263     1.3521 C.3     
  19 N19           -6.5106    -1.6625     0.1393 N.3     
  20 C20           -5.6284    -1.9526    -1.0197 C.3     
  21 C21           -5.5892    -1.6482     1.3040 C.3     
  22 H22            2.1867    -2.5460     0.2708 H       
  23 H23            0.0874    -3.8100     0.4724 H       
  24 H24           -2.1483    -0.2431    -0.2738 H       
  25 H25           -1.1395     1.9083     1.0553 H       
  26 H26           -1.2913     4.2055     0.7612 H       
  27 H27            0.2952     4.0824    -0.0362 H       
  28 H28           -1.1960     3.8627    -0.9828 H       
  29 H29           -3.1843    -1.5889    -1.2909 H       
  30 H30           -2.8953    -3.2862    -1.7826 H       
  31 H31           -4.9065    -4.0254    -0.7822 H       
  32 H32           -4.8666    -3.7154     1.5844 H       
  33 H33           -2.8266    -2.7522     2.2934 H       
  34 H34           -3.1391    -1.2375     1.3912 H       
  35 H35           -6.9693    -0.7705     0.0302 H       
  36 H36           -5.0991    -1.0514    -1.3290 H       
  37 H37           -6.2105    -2.3555    -1.8485 H       
  38 H38           -6.1418    -1.8216     2.2275 H       
  39 H39           -5.0539    -0.7000     1.3531 H       
@<TRIPOS>BOND
   1    1    2 1
   2    1    8 2
   3    1    9 am
   4    2    3 ar
   5    2    7 ar
   6    3    4 ar
   7    3   10 1
   8    4    5 ar
   9    4   22 1
  10    5    6 ar
  11    5   23 1
  12    6    7 ar
  13    6   14 1
  14    7   24 1
  15    9   13 1
  16    9   25 1
  17   10   11 2
  18   10   12 2
  19   13   26 1
  20   13   27 1
  21   13   28 1
  22   14   15 1
  23   14   18 1
  24   15   16 1
  25   15   29 1
  26   15   30 1
  27   16   17 1
  28   16   20 1
  29   16   31 1
  30   17   18 1
  31   17   21 1
  32   17   32 1
  33   18   33 1
  34   18   34 1
  35   19   20 1
  36   19   21 1
  37   19   35 1
  38   20   36 1
  39   20   37 1
  40   21   38 1
  41   21   39 1

#	End of record

