#	Name: ASD04880386
#	Creating user name:	WinNT
#	Creation time:	15. 06. 2019 20:53

#	Modifying user name:	WinNT
#	Modification time:	15. 06. 2019 20:53

#	Program:	/corina/corina34_cracker 3.40 0067  02.08.2006

@<TRIPOS>MOLECULE
ASD04880386
  40   42    0    0    0
SMALL
NO_CHARGES


@<TRIPOS>ATOM
   1 C1            -0.0143     1.3817     0.0537 C.ar    
   2 C2             0.0028     0.0001    -0.0071 C.ar    
   3 C3             1.2040    -0.6781    -0.0363 C.ar    
   4 C4             2.4051     0.0324    -0.0049 C.ar    
   5 C5             2.3833     1.4268     0.0560 C.ar    
   6 C6             1.1740     2.0944     0.0851 C.ar    
   7 C7             3.6948    -0.6888    -0.0354 C.2     
   8 O8             3.7146    -1.9024     0.0378 O.2     
   9 N9             4.8489    -0.0014    -0.1445 N.am    
  10 C10            6.2000    -0.5795    -0.0682 C.3     
  11 N11            4.9576     1.3719    -0.3538 N.2     
  12 C12            6.1709     1.7993    -0.4235 C.2     
  13 C13            7.1257     0.6392    -0.2541 C.3     
  14 F14            1.1498     3.4440     0.1435 F       
  15 C15            6.5675     3.2034    -0.6390 C.ar    
  16 C16            5.5932     4.1906    -0.7853 C.ar    
  17 C17            5.9770     5.5140    -0.9886 C.ar    
  18 C18            7.3332     5.8442    -1.0446 C.ar    
  19 C19            8.2930     4.8623    -0.8995 C.ar    
  20 C20            7.9207     3.5491    -0.6915 C.ar    
  21 C21            4.9510     6.5672    -1.1452 C.2     
  22 O22            3.7713     6.2784    -1.0967 O.2     
  23 N23            5.3239     7.8473    -1.3418 N.am    
  24 C24            4.3074     8.8908    -1.4970 C.3     
  25 H25           -0.9574     1.9076     0.0721 H       
  26 H26           -0.9267    -0.5494    -0.0314 H       
  27 H27            1.2149    -1.7570    -0.0830 H       
  28 H28            3.3091     1.9823     0.0809 H       
  29 H29            6.3651    -1.0417     0.9050 H       
  30 H30            6.3533    -1.3032    -0.8687 H       
  31 H31            7.7503     0.7836     0.6275 H       
  32 H32            7.7420     0.5180    -1.1449 H       
  33 H33            4.5460     3.9300    -0.7416 H       
  34 H34            7.6317     6.8701    -1.2021 H       
  35 H35            9.3400     5.1234    -0.9444 H       
  36 H36            8.6766     2.7861    -0.5784 H       
  37 H37            6.2653     8.0778    -1.3806 H       
  38 H38            3.6886     8.9315    -0.6006 H       
  39 H39            4.7953     9.8541    -1.6458 H       
  40 H40            3.6819     8.6632    -2.3602 H       
@<TRIPOS>BOND
   1    1    2 ar
   2    1    6 ar
   3    1   25 1
   4    2    3 ar
   5    2   26 1
   6    3    4 ar
   7    3   27 1
   8    4    5 ar
   9    4    7 1
  10    5    6 ar
  11    5   28 1
  12    6   14 1
  13    7    8 2
  14    7    9 am
  15    9   10 1
  16    9   11 1
  17   10   13 1
  18   10   29 1
  19   10   30 1
  20   11   12 2
  21   12   13 1
  22   12   15 1
  23   13   31 1
  24   13   32 1
  25   15   16 ar
  26   15   20 ar
  27   16   17 ar
  28   16   33 1
  29   17   18 ar
  30   17   21 1
  31   18   19 ar
  32   18   34 1
  33   19   20 ar
  34   19   35 1
  35   20   36 1
  36   21   22 2
  37   21   23 am
  38   23   24 1
  39   23   37 1
  40   24   38 1
  41   24   39 1
  42   24   40 1

#	End of record

