#	Name: ASD01916582
#	Creating user name:	WinNT
#	Creation time:	15. 06. 2019 20:07

#	Modifying user name:	WinNT
#	Modification time:	15. 06. 2019 20:07

#	Program:	/corina/corina34_cracker 3.40 0067  02.08.2006

@<TRIPOS>MOLECULE
ASD01916582
  44   48    0    0    0
SMALL
NO_CHARGES


@<TRIPOS>ATOM
   1 C1            -0.0171     1.4094     0.0098 C.ar    
   2 C2             0.0021    -0.0041     0.0020 C.ar    
   3 C3            -1.1937    -0.7235     0.0181 C.ar    
   4 C4            -2.3859    -0.0605     0.0337 C.ar    
   5 C5            -2.4215     1.3423     0.0295 C.ar    
   6 C6            -1.2390     2.0784     0.0193 C.ar    
   7 N7             1.1619     2.0753     0.0021 N.2     
   8 C8             2.3094     1.4674    -0.0213 C.2     
   9 N9             2.4272     0.0959    -0.0005 N.am    
  10 C10            1.3090    -0.6714    -0.0233 C.2     
  11 C11           -3.6823     2.0219     0.0341 C.1     
  12 O12            1.3915    -1.8870    -0.0634 O.2     
  13 C13           -4.7157     2.5789     0.0378 C.1     
  14 C14           -5.9763     3.2583     0.0424 C.ar    
  15 N15           -6.0097     4.5874     0.0385 N.ar    
  16 C16           -7.1485     5.2486     0.0421 C.ar    
  17 C17           -8.3592     4.5796     0.0501 C.ar    
  18 C18           -8.3715     3.1913     0.0545 C.ar    
  19 C19           -7.1624     2.5197     0.0452 C.ar    
  20 C20            3.5647     2.3079    -0.1119 C.3     
  21 C21            4.2436     2.2490     1.2811 C.3     
  22 N22            5.1328     1.1056     1.2078 N.3     
  23 C23            4.4809    -0.1908     1.3360 C.3     
  24 C24            3.7223    -0.5868     0.0801 C.3     
  25 C25            4.6122     1.7310    -1.0684 C.3     
  26 C26            5.7351     1.1824    -0.1590 C.3     
  27 H27           -1.1757    -1.8030     0.0200 H       
  28 H28           -3.3095    -0.6196     0.0510 H       
  29 H29           -1.2696     3.1577     0.0186 H       
  30 H30           -7.1371     6.3286     0.0390 H       
  31 H31           -9.2869     5.1325     0.0533 H       
  32 H32           -9.3047     2.6477     0.0607 H       
  33 H33           -7.1354     1.4400     0.0483 H       
  34 H34            3.3166     3.3443    -0.3747 H       
  35 H35            4.8024     3.1677     1.4633 H       
  36 H36            3.4903     2.1098     2.0578 H       
  37 H37            5.2405    -0.9485     1.5465 H       
  38 H38            3.7863    -0.1578     2.1784 H       
  39 H39            3.5312    -1.6748     0.1376 H       
  40 H40            4.3176    -0.4327    -0.8089 H       
  41 H41            4.1944     0.9642    -1.7109 H       
  42 H42            5.0192     2.5331    -1.7012 H       
  43 H43            6.5872     1.8692    -0.1584 H       
  44 H44            6.0608     0.1981    -0.4966 H       
@<TRIPOS>BOND
   1    1    2 ar
   2    1    7 1
   3    1    6 ar
   4    2    3 ar
   5    2   10 1
   6    3    4 ar
   7    3   27 1
   8    4    5 ar
   9    4   28 1
  10    5    6 ar
  11    5   11 1
  12    6   29 1
  13    7    8 2
  14    8    9 1
  15    8   20 1
  16    9   10 am
  17    9   24 1
  18   10   12 2
  19   11   13 3
  20   13   14 1
  21   14   15 ar
  22   14   19 ar
  23   15   16 ar
  24   16   17 ar
  25   16   30 1
  26   17   18 ar
  27   17   31 1
  28   18   19 ar
  29   18   32 1
  30   19   33 1
  31   20   21 1
  32   20   25 1
  33   20   34 1
  34   21   22 1
  35   21   35 1
  36   21   36 1
  37   22   23 1
  38   22   26 1
  39   23   24 1
  40   23   37 1
  41   23   38 1
  42   24   39 1
  43   24   40 1
  44   25   26 1
  45   25   41 1
  46   25   42 1
  47   26   43 1
  48   26   44 1

#	End of record

