#	Name: ASD00510005
#	Creating user name:	WinNT
#	Creation time:	15. 06. 2019 18:36

#	Modifying user name:	WinNT
#	Modification time:	15. 06. 2019 18:36

#	Program:	/corina/corina34_cracker 3.40 0067  02.08.2006

@<TRIPOS>MOLECULE
ASD00510005
  35   38    0    0    0
SMALL
NO_CHARGES


@<TRIPOS>ATOM
   1 C1             0.0242     1.3197    -0.5653 C.ar    
   2 N2             0.0415    -0.0025    -0.5635 N.ar    
   3 C3             1.1480    -0.6976    -0.3982 C.ar    
   4 C4             2.3592    -0.0347    -0.2162 C.ar    
   5 C5             2.3740     1.3808    -0.2132 C.ar    
   6 C6             1.1645     2.0562    -0.3940 C.ar    
   7 C7             3.6357    -0.7288    -0.0248 C.ar    
   8 C8             4.8056     0.0448     0.1513 C.ar    
   9 N9             4.7598     1.3818     0.1453 N.ar    
  10 C10            3.6506     2.0684    -0.0216 C.ar    
  11 C11            3.7096    -2.1222    -0.0138 C.ar    
  12 C12            4.9223    -2.7506     0.1686 C.ar    
  13 C13            6.0811    -2.0118     0.3435 C.ar    
  14 C14            6.0425    -0.6227     0.3369 C.ar    
  15 C15            3.6943     3.5474    -0.0144 C.ar    
  16 C16            2.7332     4.2731     0.6909 C.ar    
  17 C17            2.7789     5.6515     0.6940 C.ar    
  18 C18            3.7757     6.3156    -0.0013 C.ar    
  19 C19            4.7321     5.6007    -0.7030 C.ar    
  20 C20            4.7001     4.2219    -0.7081 C.ar    
  21 Cl21           3.8263     8.0509     0.0062 Cl      
  22 C22            7.2809     0.1527     0.5239 C.2     
  23 O23            7.2440     1.3674     0.5176 O.2     
  24 O24            8.4548    -0.4850     0.7019 O.3     
  25 H25           -0.9152     1.8324    -0.7102 H       
  26 H26            1.1161    -1.7771    -0.4033 H       
  27 H27            1.1304     3.1357    -0.3988 H       
  28 H28            2.8135    -2.7099    -0.1484 H       
  29 H29            4.9698    -3.8295     0.1756 H       
  30 H30            7.0233    -2.5202     0.4856 H       
  31 H31            1.9550     3.7563     1.2329 H       
  32 H32            2.0357     6.2142     1.2395 H       
  33 H33            5.5070     6.1238    -1.2437 H       
  34 H34            5.4465     3.6654    -1.2556 H       
  35 H35            9.2403     0.0664     0.8205 H       
@<TRIPOS>BOND
   1    1    2 ar
   2    1    6 ar
   3    1   25 1
   4    2    3 ar
   5    3    4 ar
   6    3   26 1
   7    4    5 ar
   8    4    7 ar
   9    5    6 ar
  10    5   10 ar
  11    6   27 1
  12    7    8 ar
  13    7   11 ar
  14    8    9 ar
  15    8   14 ar
  16    9   10 ar
  17   10   15 1
  18   11   12 ar
  19   11   28 1
  20   12   13 ar
  21   12   29 1
  22   13   14 ar
  23   13   30 1
  24   14   22 1
  25   15   16 ar
  26   15   20 ar
  27   16   17 ar
  28   16   31 1
  29   17   18 ar
  30   17   32 1
  31   18   19 ar
  32   18   21 1
  33   19   20 ar
  34   19   33 1
  35   20   34 1
  36   22   23 2
  37   22   24 1
  38   24   35 1

#	End of record

