#	Name: ASD01410427
#	Creating user name:	WinNT
#	Creation time:	15. 06. 2019 19:17

#	Modifying user name:	WinNT
#	Modification time:	15. 06. 2019 19:17

#	Program:	/corina/corina34_cracker 3.40 0067  02.08.2006

@<TRIPOS>MOLECULE
ASD01410427
  78   84    0    0    0
SMALL
NO_CHARGES


@<TRIPOS>ATOM
   1 C1            -0.1916     1.8017     1.8666 C.ar    
   2 C2             0.0314     0.4604     1.4929 C.ar    
   3 C3            -1.0054    -0.2880     0.9150 C.ar    
   4 C4            -2.2252     0.2790     0.7148 C.ar    
   5 C5            -2.4581     1.6150     1.0835 C.ar    
   6 C6            -1.4390     2.3716     1.6641 C.ar    
   7 N7             0.9867     2.2792     2.3998 N.pl3   
   8 C8             1.9266     1.2760     2.3663 C.2     
   9 C9             1.3750     0.1617     1.8215 C.2     
  10 C10            1.2022     3.6330     2.9165 C.3     
  11 C11            3.3194     1.3927     2.8477 C.ar    
  12 C12            2.0696    -1.1581     1.6051 C.3     
  13 C13            1.3441    -2.2695     2.3837 C.3     
  14 C14            0.8649    -3.2986     1.3391 C.3     
  15 C15            1.8152    -3.0876     0.1343 C.3     
  16 C16            2.0060    -1.5506     0.1146 C.3     
  17 N17            3.7331     2.5449     3.3613 N.ar    
  18 C18            4.9717     2.6824     3.8006 C.ar    
  19 C19            5.8426     1.6043     3.7199 C.ar    
  20 C20            5.3773     0.4142     3.1773 C.ar    
  21 N21            4.1253     0.3414     2.7612 N.ar    
  22 Br22           7.6245     1.7539     4.3352 Br      
  23 C23           -3.7799     2.2155     0.8619 C.2     
  24 C24           -4.8837     1.3994     0.2402 C.3     
  25 O25           -3.9832     3.3685     1.1794 O.2     
  26 C26           -6.1696     2.2274     0.1999 C.3     
  27 C27           -6.0636     3.4294    -0.7028 C.2     
  28 C28           -7.4358     1.3878    -0.0383 C.3     
  29 C29           -7.5227     1.2290     1.4888 C.3     
  30 C30           -6.7380     2.5506     1.5918 C.3     
  31 N31           -6.1151     4.6681    -0.3042 N.2     
  32 C32           -5.9880     5.4969    -1.3692 C.ar    
  33 C33           -5.8479     4.6812    -2.5077 C.ar    
  34 N34           -5.8946     3.3779    -2.0502 N.pl3   
  35 C35           -5.7904     2.1662    -2.8670 C.3     
  36 C36           -5.9745     6.8908    -1.5070 C.ar    
  37 C37           -5.8263     7.4541    -2.7372 C.ar    
  38 C38           -5.6863     6.6475    -3.8781 C.ar    
  39 C39           -5.6977     5.2562    -3.7571 C.ar    
  40 C40           -5.5279     7.2678    -5.2006 C.2     
  41 C41           -5.5171     8.6137    -5.3185 C.2     
  42 C42           -5.3643     9.2124    -6.5947 C.2     
  43 O43           -5.2430     8.5142    -7.5835 O.2     
  44 O44           -5.3535    10.5565    -6.7125 O.3     
  45 H45           -0.8344    -1.3152     0.6285 H       
  46 H46           -3.0199    -0.3010     0.2692 H       
  47 H47           -1.6190     3.3982     1.9470 H       
  48 H48            0.9587     3.6595     3.9787 H       
  49 H49            2.2460     3.9137     2.7759 H       
  50 H50            0.5621     4.3331     2.3795 H       
  51 H51            3.1078    -1.0910     1.9303 H       
  52 H52            2.0304    -2.7423     3.0861 H       
  53 H53            0.4896    -1.8543     2.9180 H       
  54 H54            0.9625    -4.3117     1.7291 H       
  55 H55           -0.1669    -3.0975     1.0509 H       
  56 H56            2.7667    -3.5928     0.2998 H       
  57 H57            1.3498    -3.4309    -0.7896 H       
  58 H58            1.1584    -1.0672    -0.3714 H       
  59 H59            2.9363    -1.2881    -0.3891 H       
  60 H60            5.3026     3.6223     4.2171 H       
  61 H61            6.0295    -0.4432     3.1003 H       
  62 H62           -4.6006     1.1184    -0.7742 H       
  63 H63           -5.0490     0.5001     0.8335 H       
  64 H64           -8.2621     1.9556    -0.4660 H       
  65 H65           -7.2466     0.4522    -0.5645 H       
  66 H66           -8.5391     1.2931     1.8773 H       
  67 H67           -6.9765     0.3661     1.8698 H       
  68 H68           -5.9866     2.5519     2.3815 H       
  69 H69           -7.3739     3.4357     1.6098 H       
  70 H70           -4.7570     1.8194    -2.8723 H       
  71 H71           -6.4319     1.3902    -2.4494 H       
  72 H72           -6.1046     2.3875    -3.8870 H       
  73 H73           -6.0822     7.5196    -0.6355 H       
  74 H74           -5.8166     8.5295    -2.8366 H       
  75 H75           -5.5899     4.6334    -4.6328 H       
  76 H76           -5.4202     6.6480    -6.0784 H       
  77 H77           -5.6248     9.2336    -4.4407 H       
  78 H78           -5.2445    10.8709    -7.6204 H       
@<TRIPOS>BOND
   1    1    2 ar
   2    1    7 1
   3    1    6 ar
   4    2    3 ar
   5    2    9 1
   6    3    4 ar
   7    3   45 1
   8    4    5 ar
   9    4   46 1
  10    5    6 ar
  11    5   23 1
  12    6   47 1
  13    7    8 1
  14    7   10 1
  15    8    9 2
  16    8   11 1
  17    9   12 1
  18   10   48 1
  19   10   49 1
  20   10   50 1
  21   11   17 ar
  22   11   21 ar
  23   12   13 1
  24   12   16 1
  25   12   51 1
  26   13   14 1
  27   13   52 1
  28   13   53 1
  29   14   15 1
  30   14   54 1
  31   14   55 1
  32   15   16 1
  33   15   56 1
  34   15   57 1
  35   16   58 1
  36   16   59 1
  37   17   18 ar
  38   18   19 ar
  39   18   60 1
  40   19   20 ar
  41   19   22 1
  42   20   21 ar
  43   20   61 1
  44   23   24 1
  45   23   25 2
  46   24   26 1
  47   24   62 1
  48   24   63 1
  49   26   27 1
  50   26   28 1
  51   26   30 1
  52   27   31 2
  53   27   34 1
  54   28   29 1
  55   28   64 1
  56   28   65 1
  57   29   30 1
  58   29   66 1
  59   29   67 1
  60   30   68 1
  61   30   69 1
  62   31   32 1
  63   32   33 ar
  64   32   36 ar
  65   33   34 1
  66   33   39 ar
  67   34   35 1
  68   35   70 1
  69   35   71 1
  70   35   72 1
  71   36   37 ar
  72   36   73 1
  73   37   38 ar
  74   37   74 1
  75   38   39 ar
  76   38   40 1
  77   39   75 1
  78   40   41 2
  79   40   76 1
  80   41   42 1
  81   41   77 1
  82   42   43 2
  83   42   44 1
  84   44   78 1

#	End of record

