#	Name: ASD04560152
#	Creating user name:	WinNT
#	Creation time:	15. 06. 2019 20:49

#	Modifying user name:	WinNT
#	Modification time:	15. 06. 2019 20:49

#	Program:	/corina/corina34_cracker 3.40 0067  02.08.2006

@<TRIPOS>MOLECULE
ASD04560152
  52   55    0    0    0
SMALL
NO_CHARGES


@<TRIPOS>ATOM
   1 C1             0.0457     1.3028    -0.0200 C.ar    
   2 C2             0.1446    -0.0643    -0.0434 C.ar    
   3 C3             1.3961    -0.6744     0.0027 C.ar    
   4 C4             2.5504     0.1023     0.0727 C.ar    
   5 C5             2.4577     1.4698     0.0969 C.ar    
   6 C6             1.2027     2.0851     0.0503 C.ar    
   7 C7             1.0996     3.5558     0.0756 C.2     
   8 O8             2.1066     4.2349     0.1370 O.2     
   9 N9            -0.1105     4.1473     0.0306 N.am    
  10 C10           -0.2156     5.5366     0.1633 C.ar    
  11 C11           -1.1969     6.2294    -0.5335 C.ar    
  12 C12            0.5518     7.5945     1.1263 C.ar    
  13 C13            0.6576     6.2236     0.9964 C.ar    
  14 S14            1.5193    -2.4318    -0.0269 S.3     
  15 C15           -1.2992     7.6003    -0.4008 C.ar    
  16 C16           -0.4238     8.2841     0.4261 C.ar    
  17 F17           -0.5256     9.6251     0.5545 F       
  18 C18            3.3091    -2.7168     0.0508 C.3     
  19 C19            3.5830    -4.1986     0.0337 C.2     
  20 C20            4.9637    -4.6897     0.0883 C.2     
  21 O21            2.6612    -4.9852    -0.0251 O.2     
  22 C22            5.3670    -6.0144     0.0804 C.2     
  23 N23            6.7096    -6.0245     0.1420 N.pl3   
  24 N24            7.1631    -4.7018     0.1893 N.2     
  25 C25            6.1364    -3.8988     0.1527 C.2     
  26 C26            4.4671    -7.2214     0.0148 C.3     
  27 C27            7.5194    -7.1682     0.1569 C.ar    
  28 C28            7.2370    -8.2316    -0.6900 C.ar    
  29 C29            8.0372    -9.3572    -0.6734 C.ar    
  30 C30            9.1188    -9.4257     0.1855 C.ar    
  31 C31            9.4024    -8.3684     1.0305 C.ar    
  32 C32            8.6092    -7.2378     1.0144 C.ar    
  33 H33           -0.9247     1.7752    -0.0602 H       
  34 H34           -0.7486    -0.6690    -0.0972 H       
  35 H35            3.5194    -0.3734     0.1083 H       
  36 H36            3.3529     2.0714     0.1518 H       
  37 H37           -0.9086     3.6102    -0.0937 H       
  38 H38           -1.8794     5.6966    -1.1791 H       
  39 H39            1.2307     8.1292     1.7741 H       
  40 H40            1.4186     5.6862     1.5427 H       
  41 H41           -2.0623     8.1395    -0.9425 H       
  42 H42            3.7892    -2.2487    -0.8085 H       
  43 H43            3.7063    -2.2845     0.9692 H       
  44 H44            6.1736    -2.8197     0.1746 H       
  45 H45            4.2245    -7.4377    -1.0256 H       
  46 H46            4.9765    -8.0787     0.4549 H       
  47 H47            3.5494    -7.0209     0.5678 H       
  48 H48            6.3922    -8.1789    -1.3608 H       
  49 H49            7.8179   -10.1848    -1.3316 H       
  50 H50            9.7431   -10.3069     0.1967 H       
  51 H51           10.2473    -8.4251     1.7007 H       
  52 H52            8.8312    -6.4123     1.6745 H       
@<TRIPOS>BOND
   1    1    2 ar
   2    1    6 ar
   3    1   33 1
   4    2    3 ar
   5    2   34 1
   6    3    4 ar
   7    3   14 1
   8    4    5 ar
   9    4   35 1
  10    5    6 ar
  11    5   36 1
  12    6    7 1
  13    7    8 2
  14    7    9 am
  15    9   10 1
  16    9   37 1
  17   10   11 ar
  18   10   13 ar
  19   11   15 ar
  20   11   38 1
  21   12   13 ar
  22   12   16 ar
  23   12   39 1
  24   13   40 1
  25   14   18 1
  26   15   16 ar
  27   15   41 1
  28   16   17 1
  29   18   19 1
  30   18   42 1
  31   18   43 1
  32   19   20 1
  33   19   21 2
  34   20   22 2
  35   20   25 1
  36   22   23 1
  37   22   26 1
  38   23   24 1
  39   23   27 1
  40   24   25 2
  41   25   44 1
  42   26   45 1
  43   26   46 1
  44   26   47 1
  45   27   28 ar
  46   27   32 ar
  47   28   29 ar
  48   28   48 1
  49   29   30 ar
  50   29   49 1
  51   30   31 ar
  52   30   50 1
  53   31   32 ar
  54   31   51 1
  55   32   52 1

#	End of record

