#	Name: ASD03090438
#	Creating user name:	WinNT
#	Creation time:	15. 06. 2019 20:28

#	Modifying user name:	WinNT
#	Modification time:	15. 06. 2019 20:28

#	Program:	/corina/corina34_cracker 3.40 0067  02.08.2006

@<TRIPOS>MOLECULE
ASD03090438
  36   38    0    0    0
SMALL
NO_CHARGES


@<TRIPOS>ATOM
   1 C1            -0.0179     1.4719     0.0101 C.2     
   2 C2             0.0021    -0.0041     0.0020 C.ar    
   3 C3             1.2203    -0.6995    -0.0133 C.ar    
   4 C4             1.1875    -2.0786    -0.0205 C.ar    
   5 C5            -0.0424    -2.7299    -0.0123 C.ar    
   6 N6            -1.1755    -2.0450     0.0022 N.ar    
   7 C7            -1.1903    -0.7285     0.0153 C.ar    
   8 O8             1.0266     2.0941     0.0035 O.2     
   9 N9            -1.1942     2.1299     0.0193 N.am    
  10 O10           -0.0809    -4.0843    -0.0197 O.3     
  11 C11           -1.3719    -4.6967    -0.0107 C.3     
  12 C12           -1.2140     3.5947     0.0273 C.3     
  13 N13           -5.5112     5.0584    -2.1445 N.pl3   
  14 C14           -6.6970     5.4576    -1.5906 C.2     
  15 C15           -6.6113     5.4226    -0.2514 C.2     
  16 C16           -5.2601     4.9636     0.0793 C.ar    
  17 C17           -4.5809     4.7282     1.2764 C.ar    
  18 C18           -3.2867     4.2914     1.2473 C.ar    
  19 C19           -2.6415     4.0777     0.0367 C.ar    
  20 C20           -3.2929     4.3031    -1.1559 C.ar    
  21 C21           -4.6107     4.7490    -1.1499 C.ar    
  22 H22            2.1607    -0.1683    -0.0198 H       
  23 H23            2.1060    -2.6466    -0.0327 H       
  24 H24           -2.1344    -0.2043     0.0317 H       
  25 H25           -2.0275     1.6335     0.0205 H       
  26 H26           -1.9290    -4.3831    -0.8935 H       
  27 H27           -1.2599    -5.7809    -0.0180 H       
  28 H28           -1.9117    -4.3933     0.8863 H       
  29 H29           -0.7010     3.9602     0.9169 H       
  30 H30           -0.7094     3.9698    -0.8630 H       
  31 H31           -5.3329     4.9983    -3.0961 H       
  32 H32           -7.5722     5.7568    -2.1483 H       
  33 H33           -7.3907     5.6835     0.4492 H       
  34 H34           -5.0764     4.8923     2.2219 H       
  35 H35           -2.7617     4.1099     2.1735 H       
  36 H36           -2.7822     4.1343    -2.0925 H       
@<TRIPOS>BOND
   1    1    2 1
   2    1    8 2
   3    1    9 am
   4    2    3 ar
   5    2    7 ar
   6    3    4 ar
   7    3   22 1
   8    4    5 ar
   9    4   23 1
  10    5    6 ar
  11    5   10 1
  12    6    7 ar
  13    7   24 1
  14    9   12 1
  15    9   25 1
  16   10   11 1
  17   11   26 1
  18   11   27 1
  19   11   28 1
  20   12   19 1
  21   12   29 1
  22   12   30 1
  23   13   14 1
  24   13   21 1
  25   13   31 1
  26   14   15 2
  27   14   32 1
  28   15   16 1
  29   15   33 1
  30   16   17 ar
  31   16   21 ar
  32   17   18 ar
  33   17   34 1
  34   18   19 ar
  35   18   35 1
  36   19   20 ar
  37   20   21 ar
  38   20   36 1

#	End of record

