#	Name: ASD03090704
#	Creating user name:	WinNT
#	Creation time:	15. 06. 2019 20:29

#	Modifying user name:	WinNT
#	Modification time:	15. 06. 2019 20:29

#	Program:	/corina/corina34_cracker 3.40 0067  02.08.2006

@<TRIPOS>MOLECULE
ASD03090704
  36   37    0    0    0
SMALL
NO_CHARGES


@<TRIPOS>ATOM
   1 N1            -0.0083     1.3368    -0.4209 N.am    
   2 C2            -0.1067     0.1852     0.2724 C.2     
   3 O3             0.8231    -0.1926     0.9586 O.2     
   4 N4            -1.2359    -0.5475     0.2050 N.am    
   5 O5            -0.4027    -2.2763     1.7142 O.3     
   6 N6            -0.7847    -3.3157     2.1995 N.2     
   7 C7            -1.9934    -3.6149     1.8144 C.2     
   8 C8            -2.4073    -2.5800     0.9518 C.2     
   9 C9            -1.3372    -1.7326     0.9185 C.2     
  10 C10           -2.7917    -4.8295     2.2128 C.3     
  11 F11           -2.0807    -5.5613     3.1700 F       
  12 F12           -4.0181    -4.4254     2.7511 F       
  13 F13           -3.0171    -5.6291     1.0873 F       
  14 C14            1.1142     2.1596    -0.2568 C.ar    
  15 C15            0.9596     3.5372    -0.1753 C.ar    
  16 C16            2.0659     4.3473    -0.0132 C.ar    
  17 C17            3.3318     3.7853     0.0677 C.ar    
  18 C18            3.4869     2.4095    -0.0141 C.ar    
  19 C19            2.3805     1.5975    -0.1700 C.ar    
  20 N20           -0.3908     4.1371    -0.2626 N.pl3   
  21 O21           -0.5188     5.3481    -0.2865 O.2     
  22 O22           -1.3739     3.4197    -0.3106 O.2     
  23 O23            4.4209     4.5837     0.2269 O.3     
  24 C24            5.6933     3.9377     0.3026 C.3     
  25 C25            6.7897     4.9900     0.4802 C.3     
  26 H26           -0.7124     1.5941    -1.0363 H       
  27 H27           -1.9777    -0.2460    -0.3424 H       
  28 H28           -3.3513    -2.4806     0.4367 H       
  29 H29            1.9459     5.4187     0.0502 H       
  30 H30            4.4726     1.9726     0.0486 H       
  31 H31            2.5010     0.5259    -0.2293 H       
  32 H32            5.7042     3.2548     1.1521 H       
  33 H33            5.8720     3.3783    -0.6157 H       
  34 H34            7.7603     4.4973     0.5379 H       
  35 H35            6.7789     5.6730    -0.3693 H       
  36 H36            6.6111     5.5495     1.3984 H       
@<TRIPOS>BOND
   1    1    2 am
   2    1   14 1
   3    1   26 1
   4    2    3 2
   5    2    4 am
   6    4    9 1
   7    4   27 1
   8    5    6 1
   9    5    9 1
  10    6    7 2
  11    7    8 1
  12    7   10 1
  13    8    9 2
  14    8   28 1
  15   10   11 1
  16   10   12 1
  17   10   13 1
  18   14   15 ar
  19   14   19 ar
  20   15   16 ar
  21   15   20 1
  22   16   17 ar
  23   16   29 1
  24   17   18 ar
  25   17   23 1
  26   18   19 ar
  27   18   30 1
  28   19   31 1
  29   20   21 2
  30   20   22 2
  31   23   24 1
  32   24   25 1
  33   24   32 1
  34   24   33 1
  35   25   34 1
  36   25   35 1
  37   25   36 1

#	End of record

