#	Name: ASD05720073
#	Creating user name:	WinNT
#	Creation time:	15. 06. 2019 21:01

#	Modifying user name:	WinNT
#	Modification time:	15. 06. 2019 21:01

#	Program:	/corina/corina34_cracker 3.40 0067  02.08.2006

@<TRIPOS>MOLECULE
ASD05720073
  70   73    0    0    0
SMALL
NO_CHARGES


@<TRIPOS>ATOM
   1 O1            -0.0161     1.3334     0.0094 O.3     
   2 C2             0.0021    -0.0041     0.0020 C.2     
   3 N3             1.2348    -0.5293    -0.0126 N.am    
   4 C4             2.2183     0.5645    -0.0161 C.3     
   5 C5             1.3508     1.8379    -0.0010 C.3     
   6 O6            -1.0069    -0.6808     0.0084 O.2     
   7 N7             4.0678     1.7432     3.6526 N.3     
   8 C8             4.9498     1.6127     2.4858 C.3     
   9 C9             4.1125     1.6468     1.2053 C.3     
  10 C10            3.0990     0.4993     1.2333 C.3     
  11 C11            2.2246     0.6314     2.4833 C.3     
  12 C12            3.1167     0.6268     3.7267 C.3     
  13 C13            3.0997    -3.5830    -0.0446 C.2     
  14 N14            2.7934    -2.2820    -0.0358 N.2     
  15 C15            1.5348    -1.8852    -0.0220 C.2     
  16 C16            0.4948    -2.8369    -0.0165 C.2     
  17 C17            0.8012    -4.1542    -0.0253 C.2     
  18 N18            2.1144    -4.5345    -0.0395 N.pl3   
  19 N19            2.7294    -5.7914    -0.0515 N.2     
  20 C20            4.0306    -5.6364    -0.0634 C.2     
  21 C21            4.3226    -4.2670    -0.0650 C.2     
  22 C22            5.6706    -3.6561    -0.0831 C.ar    
  23 C23            6.6407    -4.0788     0.8272 C.ar    
  24 C24            7.8966    -3.5089     0.8095 C.ar    
  25 C25            8.1963    -2.5093    -0.1195 C.ar    
  26 C26            7.2260    -2.0883    -1.0281 C.ar    
  27 C27            5.9737    -2.6612    -1.0144 C.ar    
  28 N28           11.2830    -0.6691    -0.6320 N.pl3   
  29 N29            9.9472    -0.9508    -0.9614 N.2     
  30 C30            9.5460    -1.8958    -0.1389 C.2     
  31 N31           10.5598    -2.2120     0.6787 N.2     
  32 C32           11.6046    -1.4818     0.3903 C.2     
  33 F33            8.8363    -3.9168     1.6903 F       
  34 H34            2.8286     0.5277    -0.9184 H       
  35 H35            1.5314     2.4339    -0.8956 H       
  36 H36            1.5485     2.4243     0.8964 H       
  37 H37            4.6035     1.8189     4.5042 H       
  38 H38            5.6629     2.4370     2.4755 H       
  39 H39            5.4890     0.6670     2.5421 H       
  40 H40            3.5838     2.5978     1.1415 H       
  41 H41            4.7659     1.5342     0.3401 H       
  42 H42            3.6280    -0.4534     1.2567 H       
  43 H43            1.6662     1.5665     2.4395 H       
  44 H44            1.5292    -0.2065     2.5311 H       
  45 H45            3.6645    -0.3142     3.7772 H       
  46 H46            2.4983     0.7351     4.6178 H       
  47 H47           -0.5367    -2.5172    -0.0049 H       
  48 H48            0.0174    -4.8972    -0.0209 H       
  49 H49            4.7584    -6.4342    -0.0738 H       
  50 H50            6.4080    -4.8513     1.5451 H       
  51 H51            7.4581    -1.3156    -1.7461 H       
  52 H52            5.2243    -2.3375    -1.7215 H       
  53 H53           11.8615    -0.0190    -1.0605 H       
  54 H54           12.5623    -1.5238     0.8878 H       
  55 C55           18.7337     9.5860    10.7646 C.2     
  56 C56           18.7542     8.0792    10.7563 C.3     
  57 O57           19.7718    10.2043    10.7580 O.2     
  58 O58           17.5623    10.2413    10.7737 O.3     
  59 F59           20.0793     7.6309    10.7412 F       
  60 F60           18.1120     7.5978    11.9022 F       
  61 F61           18.0902     7.6101     9.6178 F       
  62 H62           17.5998    11.2076    10.7788 H       
  63 C63           26.2507    18.1958    18.0490 C.2     
  64 C64           26.2712    16.6890    18.0407 C.3     
  65 O65           27.2888    18.8141    18.0424 O.2     
  66 O66           25.0793    18.8511    18.0581 O.3     
  67 F67           27.5963    16.2406    18.0256 F       
  68 F68           25.6290    16.2076    19.1866 F       
  69 F69           25.6072    16.2198    16.9022 F       
  70 H70           25.1168    19.8173    18.0632 H       
@<TRIPOS>BOND
   1    1    2 1
   2    1    5 1
   3    2    3 am
   4    2    6 2
   5    3    4 1
   6    3   15 1
   7    4    5 1
   8    4   10 1
   9    4   34 1
  10    5   35 1
  11    5   36 1
  12    7    8 1
  13    7   12 1
  14    7   37 1
  15    8    9 1
  16    8   38 1
  17    8   39 1
  18    9   10 1
  19    9   40 1
  20    9   41 1
  21   10   11 1
  22   10   42 1
  23   11   12 1
  24   11   43 1
  25   11   44 1
  26   12   45 1
  27   12   46 1
  28   13   14 1
  29   13   18 1
  30   13   21 2
  31   14   15 2
  32   15   16 1
  33   16   17 2
  34   16   47 1
  35   17   18 1
  36   17   48 1
  37   18   19 1
  38   19   20 2
  39   20   21 1
  40   20   49 1
  41   21   22 1
  42   22   23 ar
  43   22   27 ar
  44   23   24 ar
  45   23   50 1
  46   24   25 ar
  47   24   33 1
  48   25   26 ar
  49   25   30 1
  50   26   27 ar
  51   26   51 1
  52   27   52 1
  53   28   29 1
  54   28   32 1
  55   28   53 1
  56   29   30 2
  57   30   31 1
  58   31   32 2
  59   32   54 1
  60   55   56 1
  61   55   57 2
  62   55   58 1
  63   56   59 1
  64   56   60 1
  65   56   61 1
  66   58   62 1
  67   63   64 1
  68   63   65 2
  69   63   66 1
  70   64   67 1
  71   64   68 1
  72   64   69 1
  73   66   70 1

#	End of record

