#	Name: ASD08170149
#	Creating user name:	WinNT
#	Creation time:	15. 06. 2019 21:17

#	Modifying user name:	WinNT
#	Modification time:	15. 06. 2019 21:17

#	Program:	/corina/corina34_cracker 3.40 0067  02.08.2006

@<TRIPOS>MOLECULE
ASD08170149
  69   72    0    0    0
SMALL
NO_CHARGES


@<TRIPOS>ATOM
   1 Cl1            0.0000     0.0000     0.0000 Cl      
   2 H2             0.0000     1.3700     0.0000 H       
   3 Cl3            5.0000     6.3700     5.0000 Cl      
   4 H4             5.0000     7.7400     5.0000 H       
   5 C5            12.1413    24.6808    15.3315 C.3     
   6 C6            15.3138    27.4563    15.3161 C.3     
   7 C7            15.4656    28.9787    15.3228 C.3     
   8 C8            16.9291    29.3377    15.3108 C.2     
   9 C9            12.1617    23.1740    15.3232 C.2     
  10 S10           17.9532    29.5778    16.7268 S.3     
  11 C11           19.2759    29.9095    15.6900 C.2     
  12 N12           18.8724    29.8199    14.4586 N.2     
  13 N13           17.6624    29.5197    14.2588 N.2     
  14 S14           12.1622    22.1413    13.8931 S.3     
  15 N15           12.1877    22.4046    16.3648 N.2     
  16 N16           12.2019    21.1609    16.1482 N.2     
  17 C17           12.1913    20.7641    14.9114 C.2     
  18 N18           12.2035    19.4405    14.4847 N.am    
  19 C19           12.2290    18.4412    15.3887 C.2     
  20 O20           12.2413    18.6962    16.5743 O.2     
  21 N21           20.5677    30.2232    16.0989 N.am    
  22 C22           21.5250    30.4644    15.1815 C.2     
  23 C23           22.9248    30.8043    15.6245 C.3     
  24 O24           21.2601    30.4079    13.9993 O.2     
  25 C25           12.2423    17.0069    14.9262 C.3     
  26 C26           12.2706    16.0931    16.1242 C.2     
  27 C27           13.5766    25.2104    15.3206 C.3     
  28 C28           23.7948    31.0262    14.4143 C.2     
  29 C29           11.1865    15.6131    16.7486 C.2     
  30 C30           23.9762    32.2063    13.8059 C.2     
  31 C31           24.8914    31.9531    12.6865 C.ar    
  32 C32           25.1795    30.5792    12.7409 C.ar    
  33 O33           24.5062    30.0700    13.7919 O.3     
  34 C34           25.4593    32.7487    11.6926 C.ar    
  35 C35           26.2980    32.1860    10.7708 C.ar    
  36 C36           26.5865    30.8298    10.8191 C.ar    
  37 C37           26.0346    30.0275    11.7948 C.ar    
  38 C38           11.6840    14.7761    17.8470 C.ar    
  39 C39           13.0849    14.8431    17.7649 C.ar    
  40 O40           13.3872    15.6366    16.7178 O.3     
  41 C41           11.0769    14.0135    18.8436 C.ar    
  42 C42           11.8508    13.3309    19.7408 C.ar    
  43 C43           13.2347    13.3931    19.6650 C.ar    
  44 C44           13.8527    14.1417    18.6862 C.ar    
  45 S45           13.5520    27.0242    15.3306 S.3     
  46 H46           11.6141    25.0419    14.4484 H       
  47 H47           11.6311    25.0323    16.2283 H       
  48 H48           15.7805    27.0486    14.4194 H       
  49 H49           15.7975    27.0390    16.1993 H       
  50 H50           14.9818    29.3960    14.4397 H       
  51 H51           14.9988    29.3864    16.2195 H       
  52 H52           12.1936    19.2365    13.5364 H       
  53 H53           20.7796    30.2683    17.0444 H       
  54 H54           22.9044    31.7113    16.2287 H       
  55 H55           23.3282    29.9826    16.2163 H       
  56 H56           11.3470    16.8067    14.3376 H       
  57 H57           13.1266    16.8308    14.3139 H       
  58 H58           14.1038    24.8493    16.2037 H       
  59 H59           14.0868    24.8589    14.4238 H       
  60 H60           10.1542    15.8041    16.4950 H       
  61 H61           23.5368    33.1531    14.0830 H       
  62 H62           25.2375    33.8048    11.6506 H       
  63 H63           26.7383    32.8012    10.0000 H       
  64 H64           27.2505    30.3982    10.0849 H       
  65 H65           26.2663    28.9731    11.8239 H       
  66 H66           10.0000    13.9622    18.9070 H       
  67 H67           11.3817    12.7400    20.5136 H       
  68 H68           13.8341    12.8491    20.3800 H       
  69 H69           14.9308    14.1827    18.6357 H       
@<TRIPOS>BOND
   1    1    2 1
   2    3    4 1
   3    5    9 1
   4    5   27 1
   5    5   46 1
   6    5   47 1
   7    6    7 1
   8    6   45 1
   9    6   48 1
  10    6   49 1
  11    7    8 1
  12    7   50 1
  13    7   51 1
  14    8   10 1
  15    8   13 2
  16    9   14 1
  17    9   15 2
  18   10   11 1
  19   11   12 2
  20   11   21 1
  21   12   13 1
  22   14   17 1
  23   15   16 1
  24   16   17 2
  25   17   18 1
  26   18   19 am
  27   18   52 1
  28   19   20 2
  29   19   25 1
  30   21   22 am
  31   21   53 1
  32   22   23 1
  33   22   24 2
  34   23   28 1
  35   23   54 1
  36   23   55 1
  37   25   26 1
  38   25   56 1
  39   25   57 1
  40   26   29 2
  41   26   40 1
  42   27   45 1
  43   27   58 1
  44   27   59 1
  45   28   30 2
  46   28   33 1
  47   29   38 1
  48   29   60 1
  49   30   31 1
  50   30   61 1
  51   31   32 ar
  52   31   34 ar
  53   32   33 1
  54   32   37 ar
  55   34   35 ar
  56   34   62 1
  57   35   36 ar
  58   35   63 1
  59   36   37 ar
  60   36   64 1
  61   37   65 1
  62   38   39 ar
  63   38   41 ar
  64   39   40 1
  65   39   44 ar
  66   41   42 ar
  67   41   66 1
  68   42   43 ar
  69   42   67 1
  70   43   44 ar
  71   43   68 1
  72   44   69 1

#	End of record

