#	Name: ASD01812770
#	Creating user name:	WinNT
#	Creation time:	15. 06. 2019 19:29

#	Modifying user name:	WinNT
#	Modification time:	15. 06. 2019 19:29

#	Program:	/corina/corina34_cracker 3.40 0067  02.08.2006

@<TRIPOS>MOLECULE
ASD01812770
  46   49    0    0    0
SMALL
NO_CHARGES


@<TRIPOS>ATOM
   1 C1             0.0575     1.4301    -0.6135 C.ar    
   2 C2             0.1011     0.0678    -0.8329 C.ar    
   3 C3             1.2831    -0.6332    -0.6468 C.ar    
   4 C4             2.4190     0.0257    -0.2429 C.ar    
   5 C5             2.3933     1.4052    -0.0165 C.ar    
   6 C6             1.1962     2.1092    -0.2055 C.ar    
   7 C7             3.8293    -0.4261     0.0437 C.3     
   8 N8             4.5723     0.7763     0.4379 N.am    
   9 C9             3.7392     1.8305     0.4016 C.2     
  10 C10            5.9886     0.8205     0.8101 C.3     
  11 C11            6.8239     1.0647    -0.4201 C.ar    
  12 C12            7.1234     2.3578    -0.8064 C.ar    
  13 C13            7.8895     2.5825    -1.9347 C.ar    
  14 C14            8.3567     1.5128    -2.6775 C.ar    
  15 C15            8.0567     0.2189    -2.2904 C.ar    
  16 C16            7.2952    -0.0046    -1.1587 C.ar    
  17 O17            1.1515     3.4479     0.0091 O.3     
  18 O18            4.0525     2.9729     0.6756 O.2     
  19 Cl19           9.3186     1.7942    -4.0950 Cl      
  20 C20           -0.1276     4.0779    -0.0868 C.3     
  21 C21           -0.1309     5.3598     0.7517 C.3     
  22 C22           -1.4791     6.0661     0.5793 C.3     
  23 C23           -1.7143     6.3439    -0.9077 C.3     
  24 O24           -1.6681     5.1140    -1.6339 O.3     
  25 C25           -0.4150     4.4325    -1.5480 C.3     
  26 O26            0.0637     5.0308     2.1287 O.3     
  27 H27           -0.8657     1.9700    -0.7644 H       
  28 H28           -0.7894    -0.4543    -1.1504 H       
  29 H29            1.3107    -1.6990    -0.8193 H       
  30 H30            3.8324    -1.1519     0.8568 H       
  31 H31            4.2719    -0.8634    -0.8514 H       
  32 H32            6.1512     1.6265     1.5256 H       
  33 H33            6.2754    -0.1293     1.2614 H       
  34 H34            6.7583     3.1927    -0.2267 H       
  35 H35            8.1231     3.5928    -2.2366 H       
  36 H36            8.4211    -0.6165    -2.8698 H       
  37 H37            7.0646    -1.0147    -0.8540 H       
  38 H38           -0.8965     3.3992     0.2824 H       
  39 H39            0.6718     6.0167     0.4168 H       
  40 H40           -2.2761     5.4280     0.9611 H       
  41 H41           -1.4701     7.0075     1.1287 H       
  42 H42           -2.6916     6.8080    -1.0407 H       
  43 H43           -0.9396     7.0147    -1.2792 H       
  44 H44            0.3768     5.0782    -1.9279 H       
  45 H45           -0.4562     3.5196    -2.1423 H       
  46 H46            0.0726     5.7970     2.7186 H       
@<TRIPOS>BOND
   1    1    2 ar
   2    1    6 ar
   3    1   27 1
   4    2    3 ar
   5    2   28 1
   6    3    4 ar
   7    3   29 1
   8    4    7 1
   9    4    5 ar
  10    5    6 ar
  11    5    9 1
  12    6   17 1
  13    7    8 1
  14    7   30 1
  15    7   31 1
  16    8    9 am
  17    8   10 1
  18    9   18 2
  19   10   11 1
  20   10   32 1
  21   10   33 1
  22   11   12 ar
  23   11   16 ar
  24   12   13 ar
  25   12   34 1
  26   13   14 ar
  27   13   35 1
  28   14   15 ar
  29   14   19 1
  30   15   16 ar
  31   15   36 1
  32   16   37 1
  33   17   20 1
  34   20   21 1
  35   20   25 1
  36   20   38 1
  37   21   26 1
  38   21   22 1
  39   21   39 1
  40   22   23 1
  41   22   40 1
  42   22   41 1
  43   23   24 1
  44   23   42 1
  45   23   43 1
  46   24   25 1
  47   25   44 1
  48   25   45 1
  49   26   46 1

#	End of record

