#	Name: ASD03240471
#	Creating user name:	WinNT
#	Creation time:	15. 06. 2019 20:35

#	Modifying user name:	WinNT
#	Modification time:	15. 06. 2019 20:35

#	Program:	/corina/corina34_cracker 3.40 0067  02.08.2006

@<TRIPOS>MOLECULE
ASD03240471
  46   49    0    0    0
SMALL
NO_CHARGES


@<TRIPOS>ATOM
   1 C1             0.0757     1.5924     0.1535 C.ar    
   2 C2            -2.8216     1.5846     1.9596 C.ar    
   3 C3            -1.8842     2.4252     1.3870 C.ar    
   4 C4            -1.3320     2.1136     0.0199 C.3     
   5 C5            -3.3306     1.8653     3.2115 C.ar    
   6 C6            -2.8986     2.9976     3.8984 C.ar    
   7 C7            -1.9547     3.8411     3.3169 C.ar    
   8 C8            -1.4522     3.5510     2.0645 C.ar    
   9 C9            -3.4430     3.3049     5.2451 C.2     
  10 C10           -3.1099     4.3739     6.0247 C.2     
  11 N11           -3.8245     4.2858     7.1646 N.pl3   
  12 N12           -4.6209     3.1364     7.0941 N.2     
  13 C13           -4.4017     2.5491     5.9476 C.2     
  14 C14            0.3316     0.2438    -0.0100 C.ar    
  15 N15           -1.3265     3.3351    -0.7961 N.3     
  16 C16           -2.6915     3.8427    -0.9935 C.3     
  17 C17            1.1114     2.4640     0.4340 C.ar    
  18 C18            2.4035     1.9876     0.5505 C.ar    
  19 C19            2.6603     0.6380     0.3869 C.ar    
  20 C20            1.6233    -0.2339     0.1067 C.ar    
  21 Cl21           4.2831     0.0388     0.5326 Cl      
  22 C22           -2.6361     5.1554    -1.7786 C.3     
  23 N23           -1.9717     4.9239    -3.0688 N.3     
  24 C24           -0.6068     4.4162    -2.8714 C.3     
  25 C25           -0.6622     3.1036    -2.0863 C.3     
  26 H26           -3.1591     0.7094     1.4243 H       
  27 H27           -1.9549     1.3588    -0.4602 H       
  28 H28           -4.0627     1.2085     3.6576 H       
  29 H29           -1.6165     4.7202     3.8452 H       
  30 H30           -0.7201     4.2041     1.6129 H       
  31 H31           -2.4020     5.1500     5.7741 H       
  32 H32           -3.7923     4.9108     7.9057 H       
  33 H33           -4.8689     1.6388     5.6019 H       
  34 H34           -0.4780    -0.4367    -0.2288 H       
  35 H35           -3.2749     3.1099    -1.5509 H       
  36 H36           -3.1579     4.0182    -0.0241 H       
  37 H37            0.9108     3.5175     0.5617 H       
  38 H38            3.2127     2.6687     0.7690 H       
  39 H39            1.8230    -1.2876    -0.0207 H       
  40 H40           -3.6492     5.5188    -1.9512 H       
  41 H41           -2.0757     5.8966    -1.2087 H       
  42 H42           -2.5112     4.2960    -3.6457 H       
  43 H43           -0.1404     4.2408    -3.8408 H       
  44 H44           -0.0234     5.1490    -2.3140 H       
  45 H45            0.3509     2.7402    -1.9137 H       
  46 H46           -1.2226     2.3624    -2.6561 H       
@<TRIPOS>BOND
   1    1   14 ar
   2    1   17 ar
   3    1    4 1
   4    2    3 ar
   5    2    5 ar
   6    2   26 1
   7    3    4 1
   8    3    8 ar
   9    4   15 1
  10    4   27 1
  11    5    6 ar
  12    5   28 1
  13    6    7 ar
  14    6    9 1
  15    7    8 ar
  16    7   29 1
  17    8   30 1
  18    9   10 2
  19    9   13 1
  20   10   11 1
  21   10   31 1
  22   11   12 1
  23   11   32 1
  24   12   13 2
  25   13   33 1
  26   14   20 ar
  27   14   34 1
  28   15   16 1
  29   15   25 1
  30   16   22 1
  31   16   35 1
  32   16   36 1
  33   17   18 ar
  34   17   37 1
  35   18   19 ar
  36   18   38 1
  37   19   20 ar
  38   19   21 1
  39   20   39 1
  40   22   23 1
  41   22   40 1
  42   22   41 1
  43   23   24 1
  44   23   42 1
  45   24   25 1
  46   24   43 1
  47   24   44 1
  48   25   45 1
  49   25   46 1

#	End of record

