#	Name: ASD03091662
#	Creating user name:	WinNT
#	Creation time:	15. 06. 2019 20:31

#	Modifying user name:	WinNT
#	Modification time:	15. 06. 2019 20:31

#	Program:	/corina/corina34_cracker 3.40 0067  02.08.2006

@<TRIPOS>MOLECULE
ASD03091662
  37   40    0    0    0
SMALL
NO_CHARGES


@<TRIPOS>ATOM
   1 C1            -0.0169     1.3960     0.0097 C.ar    
   2 C2             0.0021    -0.0041     0.0020 C.ar    
   3 C3             1.2297    -0.6779    -0.0133 C.ar    
   4 C4             2.3914     0.0652    -0.0204 C.ar    
   5 C5             2.3081     1.4519    -0.0122 C.ar    
   6 N6             1.1533     2.0657     0.0021 N.ar    
   7 C7            -1.3219     1.9148     0.0193 C.2     
   8 C8            -2.3044     1.0078     0.0194 C.2     
   9 S9            -1.6458    -0.6190     0.0144 S.3     
  10 C10           -3.7406     1.3295     0.0284 C.2     
  11 O11           -4.1037     2.4902     0.0366 O.2     
  12 N12           -4.6533     0.3378     0.0277 N.am    
  13 N13           -7.6153    -0.0696    -1.7290 N.3     
  14 C14           -6.5634     0.9007    -1.3969 C.3     
  15 C15           -6.0828     0.6580     0.0368 C.3     
  16 C16           -6.8691    -0.5177     0.6301 C.3     
  17 C17           -6.6357    -1.7545    -0.2467 C.3     
  18 C18           -7.1016    -1.4452    -1.6722 C.3     
  19 C19           -8.7807     0.0932    -0.8490 C.3     
  20 C20           -8.3632    -0.1717     0.6003 C.3     
  21 H21            1.2659    -1.7573    -0.0191 H       
  22 H22            3.3539    -0.4247    -0.0318 H       
  23 H23            3.2167     2.0358    -0.0177 H       
  24 H24           -1.5189     2.9766     0.0264 H       
  25 H25           -4.3636    -0.5879     0.0212 H       
  26 H26           -5.7274     0.7808    -2.0859 H       
  27 H27           -6.9619     1.9118    -1.4806 H       
  28 H28           -6.2550     1.5521     0.6360 H       
  29 H29           -6.5381    -0.7134     1.6500 H       
  30 H30           -5.5741    -2.0012    -0.2549 H       
  31 H31           -7.2050    -2.5955     0.1491 H       
  32 H32           -7.8918    -2.1405    -1.9555 H       
  33 H33           -6.2620    -1.5485    -2.3597 H       
  34 H34           -9.1637     1.1099    -0.9370 H       
  35 H35           -9.5572    -0.6147    -1.1390 H       
  36 H36           -8.9394    -1.0064     0.9995 H       
  37 H37           -8.5438     0.7196     1.2011 H       
@<TRIPOS>BOND
   1    1    2 ar
   2    1    6 ar
   3    1    7 1
   4    2    3 ar
   5    2    9 1
   6    3    4 ar
   7    3   21 1
   8    4    5 ar
   9    4   22 1
  10    5    6 ar
  11    5   23 1
  12    7    8 2
  13    7   24 1
  14    8    9 1
  15    8   10 1
  16   10   11 2
  17   10   12 am
  18   12   15 1
  19   12   25 1
  20   13   14 1
  21   13   18 1
  22   13   19 1
  23   14   15 1
  24   14   26 1
  25   14   27 1
  26   15   16 1
  27   15   28 1
  28   16   17 1
  29   16   20 1
  30   16   29 1
  31   17   18 1
  32   17   30 1
  33   17   31 1
  34   18   32 1
  35   18   33 1
  36   19   20 1
  37   19   34 1
  38   19   35 1
  39   20   36 1
  40   20   37 1

#	End of record

