#	Name: ASD01884916
#	Creating user name:	WinNT
#	Creation time:	15. 06. 2019 19:49

#	Modifying user name:	WinNT
#	Modification time:	15. 06. 2019 19:49

#	Program:	/corina/corina34_cracker 3.40 0067  02.08.2006

@<TRIPOS>MOLECULE
ASD01884916
  43   46    0    0    0
SMALL
NO_CHARGES


@<TRIPOS>ATOM
   1 C1             0.0395     1.4368    -0.2846 C.ar    
   2 C2             0.1460     0.1523    -0.7780 C.ar    
   3 C3            -0.9330    -0.4279    -1.4459 C.ar    
   4 C4            -2.1154     0.2926    -1.6125 C.ar    
   5 C5            -2.2157     1.5760    -1.1172 C.ar    
   6 C6            -1.1436     2.1498    -0.4485 C.ar    
   7 C7            -0.8227    -1.8063    -1.9773 C.2     
   8 C8            -1.6136    -2.8183    -1.4639 C.2     
   9 C9             0.0895    -2.0998    -3.0202 C.2     
  10 C10            0.1881    -3.3527    -3.5020 C.2     
  11 N11           -0.5845    -4.3595    -2.9976 N.pl3   
  12 C12           -1.4855    -4.1164    -1.9894 C.2     
  13 Cl13          -2.7465    -2.4911    -0.1899 Cl      
  14 C14           -0.6948    -5.6864    -3.2825 C.2     
  15 N15           -1.6019    -6.1869    -2.4839 N.2     
  16 N16           -2.0765    -5.2696    -1.7164 N.2     
  17 C17            0.0856    -6.4409    -4.3279 C.3     
  18 C18            1.3712    -6.9905    -3.7066 C.3     
  19 O19           -1.2461     3.4145     0.0381 O.3     
  20 C20           -2.4479     4.0380    -0.0563 C.ar    
  21 C21           -3.4000     3.9103     0.9521 C.ar    
  22 C22           -4.6097     4.5606     0.8188 C.ar    
  23 N23           -4.8690     5.2947    -0.2465 N.ar    
  24 C24           -3.9928     5.4399    -1.2228 C.ar    
  25 C25           -2.7585     4.8269    -1.1618 C.ar    
  26 C26           -4.3429     6.2907    -2.4163 C.3     
  27 F27            1.0831     2.0001     0.3627 F       
  28 H28            1.0631    -0.4029    -0.6476 H       
  29 H29           -2.9519    -0.1540    -2.1294 H       
  30 H30           -3.1314     2.1339    -1.2467 H       
  31 H31            0.7081    -1.3153    -3.4306 H       
  32 H32            0.8867    -3.5644    -4.2979 H       
  33 H33           -0.5172    -7.2666    -4.7057 H       
  34 H34            0.3370    -5.7692    -5.1487 H       
  35 H35            1.1198    -7.6621    -2.8857 H       
  36 H36            1.9357    -7.5362    -4.4627 H       
  37 H37            1.9741    -6.1647    -3.3287 H       
  38 H38           -3.1944     3.3104     1.8263 H       
  39 H39           -5.3538     4.4671     1.5960 H       
  40 H40           -2.0459     4.9500    -1.9640 H       
  41 H41           -4.0367     7.3203    -2.2310 H       
  42 H42           -3.8258     5.9109    -3.2975 H       
  43 H43           -5.4194     6.2563    -2.5838 H       
@<TRIPOS>BOND
   1    1    2 ar
   2    1   27 1
   3    1    6 ar
   4    2    3 ar
   5    2   28 1
   6    3    4 ar
   7    3    7 1
   8    4    5 ar
   9    4   29 1
  10    5    6 ar
  11    5   30 1
  12    6   19 1
  13    7    8 2
  14    7    9 1
  15    8   13 1
  16    8   12 1
  17    9   10 2
  18    9   31 1
  19   10   11 1
  20   10   32 1
  21   11   12 1
  22   11   14 1
  23   12   16 2
  24   14   15 2
  25   14   17 1
  26   15   16 1
  27   17   18 1
  28   17   33 1
  29   17   34 1
  30   18   35 1
  31   18   36 1
  32   18   37 1
  33   19   20 1
  34   20   21 ar
  35   20   25 ar
  36   21   22 ar
  37   21   38 1
  38   22   23 ar
  39   22   39 1
  40   23   24 ar
  41   24   25 ar
  42   24   26 1
  43   25   40 1
  44   26   41 1
  45   26   42 1
  46   26   43 1

#	End of record

