#	Name: ASD01870158
#	Creating user name:	WinNT
#	Creation time:	15. 06. 2019 19:38

#	Modifying user name:	WinNT
#	Modification time:	15. 06. 2019 19:38

#	Program:	/corina/corina34_cracker 3.40 0067  02.08.2006

@<TRIPOS>MOLECULE
ASD01870158
  26   25    0    0    0
SMALL
NO_CHARGES


@<TRIPOS>ATOM
   1 N1            -0.2371     1.1913    -0.0113 N.pl3   
   2 C2            -1.4049     2.0757     0.0074 C.3     
   3 C3            -0.3968    -0.1373    -0.2240 C.1     
   4 C4             1.1039     1.7444     0.1938 C.3     
   5 O5            -0.5391    -1.3218    -0.4135 O.2     
   6 C6            -1.4437     2.8412     1.3315 C.3     
   7 C7            -1.6396     1.8553     2.4850 C.3     
   8 C8            -1.5319     2.6007     3.8168 C.3     
   9 C9            -3.0214     1.2078     2.3733 C.3     
  10 C10           -1.3128     3.0535    -1.1356 C.2     
  11 O11           -0.3687     3.0156    -1.8886 O.2     
  12 O12           -2.2798     3.9667    -1.3172 O.3     
  13 H13           -2.3126     1.4811    -0.0953 H       
  14 H14            1.5292     2.0324    -0.7676 H       
  15 H15            1.0409     2.6198     0.8402 H       
  16 H16            1.7394     0.9924     0.6616 H       
  17 H17           -0.5053     3.3786     1.4683 H       
  18 H18           -2.2703     3.5516     1.3164 H       
  19 H19           -0.8717     1.0833     2.4375 H       
  20 H20           -1.5881     1.8866     4.6384 H       
  21 H21           -0.5804     3.1307     3.8606 H       
  22 H22           -2.3503     3.3158     3.9003 H       
  23 H23           -3.0981     0.6768     1.4245 H       
  24 H24           -3.1609     0.5054     3.1951 H       
  25 H25           -3.7893     1.9798     2.4208 H       
  26 H26           -2.1769     4.5724    -2.0639 H       
@<TRIPOS>BOND
   1    1    3 1
   2    1    4 1
   3    1    2 1
   4    2    6 1
   5    2   10 1
   6    2   13 1
   7    3    5 2
   8    4   14 1
   9    4   15 1
  10    4   16 1
  11    6    7 1
  12    6   17 1
  13    6   18 1
  14    7    8 1
  15    7    9 1
  16    7   19 1
  17    8   20 1
  18    8   21 1
  19    8   22 1
  20    9   23 1
  21    9   24 1
  22    9   25 1
  23   10   11 2
  24   10   12 1
  25   12   26 1

#	End of record

