#	Name: ASD01912088
#	Creating user name:	WinNT
#	Creation time:	15. 06. 2019 19:59

#	Modifying user name:	WinNT
#	Modification time:	15. 06. 2019 19:59

#	Program:	/corina/corina34_cracker 3.40 0067  02.08.2006

@<TRIPOS>MOLECULE
ASD01912088
  60   64    0    0    0
SMALL
NO_CHARGES


@<TRIPOS>ATOM
   1 C1            -0.0048     1.4156     0.0522 C.2     
   2 C2            -0.0091     0.0107     0.0260 C.2     
   3 N3             1.2384    -0.4055    -0.0384 N.2     
   4 N4             2.0784     0.7150    -0.0555 N.pl3   
   5 C5             1.2941     1.8291     0.0010 C.2     
   6 C6             1.7662     3.2317     0.0051 C.ar    
   7 C7             3.0185     3.5507    -0.5200 C.ar    
   8 C8             3.4528     4.8604    -0.5136 C.ar    
   9 C9             2.6490     5.8562     0.0120 C.ar    
  10 C10            1.4060     5.5462     0.5342 C.ar    
  11 C11            0.9582     4.2411     0.5289 C.ar    
  12 C12           -1.2136    -0.8557     0.0648 C.ar    
  13 C13           -1.0776    -2.2421     0.0326 C.ar    
  14 C14           -2.1986    -3.0448     0.0688 C.ar    
  15 C15           -3.4616    -2.4727     0.1368 C.ar    
  16 C16           -3.6002    -1.0918     0.1690 C.ar    
  17 C17           -2.4824    -0.2844     0.1394 C.ar    
  18 C18            3.5418     0.6939    -0.1219 C.3     
  19 C19            3.9779     0.5829    -1.5601 C.2     
  20 N20            5.2900     0.5458    -1.8655 N.am    
  21 O21            3.1480     0.5268    -2.4428 O.2     
  22 C22            5.7372     0.4376    -3.2625 C.3     
  23 C23            6.7654     1.5417    -3.5313 C.3     
  24 N24            7.8361     1.4640    -2.5286 N.3     
  25 C25            7.3183     1.7095    -1.1760 C.3     
  26 C26            6.3128     0.6185    -0.8111 C.3     
  27 C27            8.8646     2.3390    -2.8323 C.ar    
  28 N28            9.9181     2.4017    -2.0313 N.ar    
  29 C29           10.9181     3.2271    -2.2929 C.ar    
  30 C30           10.8538     4.0314    -3.4199 C.ar    
  31 C31            9.7373     3.9404    -4.2361 C.ar    
  32 N32            8.7746     3.0901    -3.9201 N.ar    
  33 O33           -4.5644    -3.2659     0.1714 O.3     
  34 C34           -5.8326    -2.6111     0.2412 C.3     
  35 F35           -5.8925    -1.8332     1.4025 F       
  36 F36           -5.9955    -1.7895    -0.8793 F       
  37 H37           -0.8747     2.0539     0.0996 H       
  38 H38            3.6470     2.7742    -0.9303 H       
  39 H39            4.4223     5.1086    -0.9195 H       
  40 H40            2.9935     6.8797     0.0150 H       
  41 H41            0.7831     6.3279     0.9432 H       
  42 H42           -0.0125     4.0003     0.9365 H       
  43 H43           -0.0952    -2.6877    -0.0210 H       
  44 H44           -2.0938    -4.1194     0.0438 H       
  45 H45           -4.5840    -0.6495     0.2219 H       
  46 H46           -2.5908     0.7899     0.1644 H       
  47 H47            3.9383     1.6138     0.3080 H       
  48 H48            3.9186    -0.1613     0.4391 H       
  49 H49            6.1960    -0.5375    -3.4256 H       
  50 H50            4.8847     0.5607    -3.9304 H       
  51 H51            7.1891     1.4095    -4.5268 H       
  52 H52            6.2786     2.5150    -3.4690 H       
  53 H53            8.1430     1.6991    -0.4633 H       
  54 H54            6.8238     2.6805    -1.1465 H       
  55 H55            5.8419     0.8586     0.1422 H       
  56 H56            6.8243    -0.3413    -0.7385 H       
  57 H57           11.7741     3.2741    -1.6360 H       
  58 H58           11.6562     4.7144    -3.6567 H       
  59 H59            9.6561     4.5535    -5.1215 H       
  60 H60           -6.6264    -3.3578     0.2628 H       
@<TRIPOS>BOND
   1    1    2 1
   2    1    5 2
   3    1   37 1
   4    2    3 2
   5    2   12 1
   6    3    4 1
   7    4    5 1
   8    4   18 1
   9    5    6 1
  10    6    7 ar
  11    6   11 ar
  12    7    8 ar
  13    7   38 1
  14    8    9 ar
  15    8   39 1
  16    9   10 ar
  17    9   40 1
  18   10   11 ar
  19   10   41 1
  20   11   42 1
  21   12   13 ar
  22   12   17 ar
  23   13   14 ar
  24   13   43 1
  25   14   15 ar
  26   14   44 1
  27   15   16 ar
  28   15   33 1
  29   16   17 ar
  30   16   45 1
  31   17   46 1
  32   18   19 1
  33   18   47 1
  34   18   48 1
  35   19   20 am
  36   19   21 2
  37   20   22 1
  38   20   26 1
  39   22   23 1
  40   22   49 1
  41   22   50 1
  42   23   24 1
  43   23   51 1
  44   23   52 1
  45   24   25 1
  46   24   27 1
  47   25   26 1
  48   25   53 1
  49   25   54 1
  50   26   55 1
  51   26   56 1
  52   27   28 ar
  53   27   32 ar
  54   28   29 ar
  55   29   30 ar
  56   29   57 1
  57   30   31 ar
  58   30   58 1
  59   31   32 ar
  60   31   59 1
  61   33   34 1
  62   34   35 1
  63   34   36 1
  64   34   60 1

#	End of record

