#	Name: ASD03090281
#	Creating user name:	WinNT
#	Creation time:	15. 06. 2019 20:28

#	Modifying user name:	WinNT
#	Modification time:	15. 06. 2019 20:28

#	Program:	/corina/corina34_cracker 3.40 0067  02.08.2006

@<TRIPOS>MOLECULE
ASD03090281
  54   56    0    0    0
SMALL
NO_CHARGES


@<TRIPOS>ATOM
   1 N1             0.4487     1.5143     1.4699 N.ar    
   2 C2             0.4106     0.1962     1.4355 C.ar    
   3 C3             1.5370    -0.5374     1.1241 C.ar    
   4 C4             2.7297     0.1376     0.8430 C.ar    
   5 C5             2.7242     1.5358     0.8911 C.ar    
   6 C6             1.5521     2.1895     1.2115 C.ar    
   7 C7             3.9633    -0.6069     0.5044 C.2     
   8 N8             5.7413    -3.4559    -0.5330 N.pl3   
   9 C9             4.8142    -4.4453    -0.8766 C.ar    
  10 C10            3.5974    -4.0912    -1.4442 C.ar    
  11 C11            2.6834    -5.0700    -1.7827 C.ar    
  12 C12            2.9796    -6.4033    -1.5559 C.ar    
  13 C13            4.1925    -6.7589    -0.9899 C.ar    
  14 C14            5.1118    -5.7841    -0.6557 C.ar    
  15 N15            4.0273    -1.8629     0.1105 N.2     
  16 C16            5.2985    -2.2021    -0.1070 C.2     
  17 N17            6.0671    -1.1671     0.1449 N.2     
  18 N18            5.2225    -0.1167     0.5390 N.pl3   
  19 C19            5.6266     1.2389     0.9198 C.3     
  20 F20            2.0838    -7.3590    -1.8869 F       
  21 C21            5.7309     2.1109    -0.3330 C.3     
  22 C22            6.1466     3.5055     0.0587 C.2     
  23 O23            6.3404     3.7753     1.2251 O.2     
  24 N24            6.3030     4.4528    -0.8871 N.am    
  25 C25            6.7071     5.8085    -0.5063 C.3     
  26 C26            8.0664     5.7576     0.1942 C.3     
  27 C27            6.8113     6.6805    -1.7591 C.3     
  28 C28            5.6657     6.4032     0.4438 C.3     
  29 C29            4.5118    -8.2110    -0.7439 C.3     
  30 F30            5.7830    -8.3182    -0.1697 F       
  31 F31            3.5603    -8.7570     0.1243 F       
  32 F32            4.4884    -8.9057    -1.9580 F       
  33 H33           -0.5148    -0.3158     1.6544 H       
  34 H34            1.4986    -1.6164     1.0982 H       
  35 H35            3.6240     2.0950     0.6811 H       
  36 H36            1.5377     3.2687     1.2509 H       
  37 H37            6.6917    -3.6407    -0.5907 H       
  38 H38            3.3656    -3.0512    -1.6206 H       
  39 H39            1.7369    -4.7951    -2.2242 H       
  40 H40            6.0577    -6.0618    -0.2147 H       
  41 H41            4.8847     1.6626     1.5967 H       
  42 H42            6.5950     1.2027     1.4189 H       
  43 H43            6.4728     1.6873    -1.0099 H       
  44 H44            4.7625     2.1472    -0.8321 H       
  45 H45            6.1479     4.2370    -1.8200 H       
  46 H46            8.8083     5.3339    -0.4827 H       
  47 H47            8.3671     6.7663     0.4776 H       
  48 H48            7.9921     5.1364     1.0868 H       
  49 H49            5.8429     6.7167    -2.2582 H       
  50 H50            7.1120     7.6891    -1.4758 H       
  51 H51            7.5533     6.2568    -2.4360 H       
  52 H52            5.5914     5.7819     1.3364 H       
  53 H53            5.9664     7.4118     0.7272 H       
  54 H54            4.6973     6.4394    -0.0552 H       
@<TRIPOS>BOND
   1    1    2 ar
   2    1    6 ar
   3    2    3 ar
   4    2   33 1
   5    3    4 ar
   6    3   34 1
   7    4    5 ar
   8    4    7 1
   9    5    6 ar
  10    5   35 1
  11    6   36 1
  12    7   15 2
  13    7   18 1
  14    8    9 1
  15    8   16 1
  16    8   37 1
  17    9   10 ar
  18    9   14 ar
  19   10   11 ar
  20   10   38 1
  21   11   12 ar
  22   11   39 1
  23   12   13 ar
  24   12   20 1
  25   13   14 ar
  26   13   29 1
  27   14   40 1
  28   15   16 1
  29   16   17 2
  30   17   18 1
  31   18   19 1
  32   19   21 1
  33   19   41 1
  34   19   42 1
  35   21   22 1
  36   21   43 1
  37   21   44 1
  38   22   23 2
  39   22   24 am
  40   24   25 1
  41   24   45 1
  42   25   26 1
  43   25   27 1
  44   25   28 1
  45   26   46 1
  46   26   47 1
  47   26   48 1
  48   27   49 1
  49   27   50 1
  50   27   51 1
  51   28   52 1
  52   28   53 1
  53   28   54 1
  54   29   30 1
  55   29   31 1
  56   29   32 1

#	End of record

