#	Name: ASD02320011
#	Creating user name:	WinNT
#	Creation time:	15. 06. 2019 20:20

#	Modifying user name:	WinNT
#	Modification time:	15. 06. 2019 20:20

#	Program:	/corina/corina34_cracker 3.40 0067  02.08.2006

@<TRIPOS>MOLECULE
ASD02320011
  50   51    0    0    0
SMALL
NO_CHARGES


@<TRIPOS>ATOM
   1 C1            -0.0130     1.4145     0.4399 C.ar    
   2 C2            -0.0036     0.0262     0.4306 C.ar    
   3 C3             1.2011    -0.6664     0.3090 C.ar    
   4 C4             2.3889     0.0281     0.1975 C.ar    
   5 C5             2.3804     1.4283     0.2064 C.ar    
   6 C6             1.1676     2.1158     0.3288 C.ar    
   7 C7             3.6310     3.5244     0.0973 C.2     
   8 C8             3.6414     2.1736     0.0886 C.2     
   9 C9             4.7904     6.5225     1.0359 C.ar    
  10 C10            4.8664     5.7341    -0.1234 C.ar    
  11 C11            4.8861     4.2663    -0.0199 C.2     
  12 C12            4.7719     7.9012     0.9299 C.ar    
  13 C13            4.8277     8.5063    -0.3190 C.ar    
  14 C14            4.9034     7.7335    -1.4709 C.ar    
  15 C15            4.9229     6.3540    -1.3824 C.ar    
  16 O16            5.9481     3.6689    -0.0319 O.2     
  17 O17            4.9969     5.6010    -2.5087 O.3     
  18 C18            5.0518     6.2999    -3.7539 C.3     
  19 O19           -1.1708    -0.6596     0.5406 O.3     
  20 C20           -2.3675     0.1119     0.6623 C.3     
  21 O21            1.2055    -2.0263     0.3008 O.3     
  22 S22            1.0724    -2.6374    -1.0868 S.o2    
  23 O23            0.8931    -4.0339    -0.8947 O.2     
  24 O24            0.1467    -1.8252    -1.7958 O.2     
  25 O25            2.4146    -2.4684    -1.7841 O.3     
  26 Na26           3.8245    -3.7162    -1.1396 Du      
  27 O27            4.7297     5.9332     2.2565 O.3     
  28 S28            6.0901     5.6832     2.8916 S.o2    
  29 O29            5.8537     4.8927     4.0485 O.2     
  30 O30            6.9564     5.2813     1.8393 O.2     
  31 O31            6.6096     7.0253     3.3870 O.3     
  32 Na32           5.7206     7.6755     5.0444 Du      
  33 O33            4.8081     9.8599    -0.4145 O.3     
  34 C34            4.8682    10.4185    -1.7284 C.3     
  35 H35           -0.9488     1.9461     0.5301 H       
  36 H36            3.3223    -0.5071     0.1041 H       
  37 H37            1.1572     3.1958     0.3356 H       
  38 H38            2.6959     4.0566     0.1910 H       
  39 H39            4.5765     1.6415    -0.0050 H       
  40 H40            4.7135     8.5091     1.8206 H       
  41 H41            4.9461     8.2117    -2.4383 H       
  42 H42            5.1086     5.5814    -4.5716 H       
  43 H43            4.1558     6.9101    -3.8679 H       
  44 H44            5.9329     6.9413    -3.7720 H       
  45 H45           -3.2244    -0.5570     0.7421 H       
  46 H46           -2.3088     0.7351     1.5546 H       
  47 H47           -2.4821     0.7459    -0.2169 H       
  48 H48            4.8449    11.5063    -1.6622 H       
  49 H49            5.7914    10.1039    -2.2151 H       
  50 H50            4.0143    10.0715    -2.3102 H       
@<TRIPOS>BOND
   1    1    2 ar
   2    1    6 ar
   3    1   35 1
   4    2    3 ar
   5    2   19 1
   6    3    4 ar
   7    3   21 1
   8    4    5 ar
   9    4   36 1
  10    5    6 ar
  11    5    8 1
  12    6   37 1
  13    7    8 2
  14    7   11 1
  15    7   38 1
  16    8   39 1
  17    9   10 ar
  18    9   12 ar
  19    9   27 1
  20   10   11 1
  21   10   15 ar
  22   11   16 2
  23   12   13 ar
  24   12   40 1
  25   13   14 ar
  26   13   33 1
  27   14   15 ar
  28   14   41 1
  29   15   17 1
  30   17   18 1
  31   18   42 1
  32   18   43 1
  33   18   44 1
  34   19   20 1
  35   20   45 1
  36   20   46 1
  37   20   47 1
  38   21   22 1
  39   22   23 2
  40   22   24 2
  41   22   25 1
  42   25   26 1
  43   27   28 1
  44   28   29 2
  45   28   30 2
  46   28   31 1
  47   31   32 1
  48   33   34 1
  49   34   48 1
  50   34   49 1
  51   34   50 1

#	End of record

