#	Name: ASD07930290
#	Creating user name:	WinNT
#	Creation time:	15. 06. 2019 21:12

#	Modifying user name:	WinNT
#	Modification time:	15. 06. 2019 21:12

#	Program:	/corina/corina34_cracker 3.40 0067  02.08.2006

@<TRIPOS>MOLECULE
ASD07930290
  57   61    0    0    0
SMALL
NO_CHARGES


@<TRIPOS>ATOM
   1 C1             0.6216     0.5105    -0.3649 C.2     
   2 C2             0.9314    -0.8219    -0.3536 C.2     
   3 C3             2.3359    -1.2196    -0.2291 C.2     
   4 N4             3.2822    -0.2701    -0.1275 N.am    
   5 C5             2.9451     1.0645    -0.1431 C.2     
   6 C6             1.6473     1.4579    -0.2581 C.2     
   7 C7             4.6993    -0.6342     0.0050 C.3     
   8 C8             5.5227     0.3383    -0.8525 C.3     
   9 N9             5.2870     1.7047    -0.3649 N.am    
  10 C10            4.0254     2.0696    -0.0337 C.2     
  11 C11            6.3958     2.6540    -0.2395 C.3     
  12 O12            3.7855     3.1996     0.3457 O.2     
  13 O13            2.6433    -2.3994    -0.2173 O.2     
  14 N14           -0.0743    -1.7868    -0.4586 N.pl3   
  15 C15           -0.2468    -2.6663    -1.4803 C.2     
  16 N16           -1.2906    -3.4053    -1.2204 N.2     
  17 C17           -1.8166    -3.0339    -0.0436 C.2     
  18 C18           -1.0701    -2.0292     0.4526 C.2     
  19 C19           -3.0301    -3.6405     0.6126 C.3     
  20 C20            6.6402     3.3336    -1.5883 C.3     
  21 O21            5.4950     4.1105    -1.9447 O.3     
  22 C22            5.5012     4.6903    -3.1733 C.ar    
  23 C23            6.5389     4.4383    -4.0557 C.ar    
  24 C24            6.5440     5.0288    -5.3055 C.ar    
  25 C25            5.5153     5.8735    -5.6826 C.ar    
  26 C26            4.4750     6.1333    -4.8131 C.ar    
  27 C27            4.4570     5.5391    -3.5538 C.ar    
  28 C28            3.3416     5.8149    -2.6157 C.ar    
  29 C29            3.0279     7.1280    -2.2696 C.ar    
  30 C30            1.9896     7.3798    -1.3966 C.ar    
  31 C31            1.2595     6.3297    -0.8639 C.ar    
  32 C32            1.5681     5.0228    -1.2048 C.ar    
  33 C33            2.6005     4.7620    -2.0822 C.ar    
  34 F34            0.2439     6.5809    -0.0091 F       
  35 H35           -0.4059     0.8294    -0.4598 H       
  36 H36            1.4063     2.5106    -0.2672 H       
  37 H37            5.0042    -0.5540     1.0484 H       
  38 H38            4.8517    -1.6547    -0.3463 H       
  39 H39            6.5820     0.0962    -0.7658 H       
  40 H40            5.2108     0.2622    -1.8941 H       
  41 H41            6.1460     3.4077     0.5072 H       
  42 H42            7.2963     2.1223     0.0680 H       
  43 H43            0.3752    -2.7406    -2.3601 H       
  44 H44           -1.2292    -1.5092     1.3857 H       
  45 H45           -2.7217    -4.4659     1.2543 H       
  46 H46           -3.5355    -2.8834     1.2123 H       
  47 H47           -3.7107    -4.0108    -0.1539 H       
  48 H48            7.5119     3.9840    -1.5147 H       
  49 H49            6.8163     2.5750    -2.3508 H       
  50 H50            7.3449     3.7801    -3.7668 H       
  51 H51            7.3549     4.8302    -5.9906 H       
  52 H52            5.5263     6.3315    -6.6607 H       
  53 H53            3.6739     6.7938    -5.1106 H       
  54 H54            3.5970     7.9471    -2.6838 H       
  55 H55            1.7458     8.3971    -1.1278 H       
  56 H56            0.9966     4.2072    -0.7869 H       
  57 H57            2.8402     3.7429    -2.3478 H       
@<TRIPOS>BOND
   1    1    2 2
   2    1    6 1
   3    1   35 1
   4    2    3 1
   5    2   14 1
   6    3    4 am
   7    3   13 2
   8    4    5 1
   9    4    7 1
  10    5    6 2
  11    5   10 1
  12    6   36 1
  13    7    8 1
  14    7   37 1
  15    7   38 1
  16    8    9 1
  17    8   39 1
  18    8   40 1
  19    9   10 am
  20    9   11 1
  21   10   12 2
  22   11   20 1
  23   11   41 1
  24   11   42 1
  25   14   15 1
  26   14   18 1
  27   15   16 2
  28   15   43 1
  29   16   17 1
  30   17   18 2
  31   17   19 1
  32   18   44 1
  33   19   45 1
  34   19   46 1
  35   19   47 1
  36   20   21 1
  37   20   48 1
  38   20   49 1
  39   21   22 1
  40   22   23 ar
  41   22   27 ar
  42   23   24 ar
  43   23   50 1
  44   24   25 ar
  45   24   51 1
  46   25   26 ar
  47   25   52 1
  48   26   27 ar
  49   26   53 1
  50   27   28 1
  51   28   29 ar
  52   28   33 ar
  53   29   30 ar
  54   29   54 1
  55   30   31 ar
  56   30   55 1
  57   31   32 ar
  58   31   34 1
  59   32   33 ar
  60   32   56 1
  61   33   57 1

#	End of record

