#	Name: ASD03090785
#	Creating user name:	WinNT
#	Creation time:	15. 06. 2019 20:29

#	Modifying user name:	WinNT
#	Modification time:	15. 06. 2019 20:29

#	Program:	/corina/corina34_cracker 3.40 0067  02.08.2006

@<TRIPOS>MOLECULE
ASD03090785
  27   29    0    0    0
SMALL
NO_CHARGES


@<TRIPOS>ATOM
   1 Cl1            0.0021    -0.0041     0.0020 Cl      
   2 C2            -0.0215     1.7317     0.0116 C.ar    
   3 C3             1.1717     2.4321     0.0039 C.ar    
   4 C4             1.1412     3.8179     0.0112 C.ar    
   5 C5            -0.0924     4.4511     0.0259 C.ar    
   6 C6            -1.2429     3.6857     0.0328 C.ar    
   7 N7            -1.1774     2.3687     0.0205 N.ar    
   8 C8            -0.1772     5.9557     0.0348 C.3     
   9 C9            -0.9742     6.4640    -1.1915 C.3     
  10 C10           -2.1929     7.1980    -0.5552 C.3     
  11 N11           -2.4147     6.3685     0.6827 N.3     
  12 C12           -1.0208     6.4506     1.2482 C.3     
  13 C13           -0.8055     7.9936     1.2878 C.3     
  14 C14           -1.6025     8.5019     0.0615 C.3     
  15 H15            2.1147     1.9059    -0.0072 H       
  16 H16            2.0566     4.3909     0.0059 H       
  17 H17           -2.2072     4.1720     0.0447 H       
  18 H18            0.8202     6.3950     0.0532 H       
  19 H19           -0.3729     7.1574    -1.7795 H       
  20 H20           -1.3079     5.6277    -1.8058 H       
  21 H21           -3.0587     7.3234    -1.2054 H       
  22 H22           -3.0814     6.8093     1.2986 H       
  23 H23           -0.8553     5.9182     2.1849 H       
  24 H24           -1.2093     8.4139     2.2089 H       
  25 H25            0.2522     8.2362     1.1854 H       
  26 H26           -0.9399     8.9964    -0.6487 H       
  27 H27           -2.4013     9.1741     0.3748 H       
@<TRIPOS>BOND
   1    1    2 1
   2    2    3 ar
   3    2    7 ar
   4    3    4 ar
   5    3   15 1
   6    4    5 ar
   7    4   16 1
   8    5    6 ar
   9    5    8 1
  10    6    7 ar
  11    6   17 1
  12    8    9 1
  13    8   12 1
  14    8   18 1
  15    9   10 1
  16    9   19 1
  17    9   20 1
  18   10   11 1
  19   10   14 1
  20   10   21 1
  21   11   12 1
  22   11   22 1
  23   12   13 1
  24   12   23 1
  25   13   14 1
  26   13   24 1
  27   13   25 1
  28   14   26 1
  29   14   27 1

#	End of record

