#	Name: ASD01884485
#	Creating user name:	WinNT
#	Creation time:	15. 06. 2019 19:48

#	Modifying user name:	WinNT
#	Modification time:	15. 06. 2019 19:48

#	Program:	/corina/corina34_cracker 3.40 0067  02.08.2006

@<TRIPOS>MOLECULE
ASD01884485
  48   50    0    0    0
SMALL
NO_CHARGES


@<TRIPOS>ATOM
   1 C1             0.5690     1.3793    -1.0412 C.2     
   2 C2             0.6008     0.0188    -1.0682 C.2     
   3 C3             1.2453    -0.6757    -0.0190 C.2     
   4 C4             1.8274     0.0339     1.0078 C.2     
   5 N5             1.7838     1.3896     1.0154 N.am    
   6 C6             1.1750     2.0669     0.0248 C.2     
   7 C7             1.2938    -2.1536    -0.0238 C.2     
   8 C8             2.4084     2.1264     2.1169 C.3     
   9 O9             1.1480     3.2868     0.0524 O.2     
  10 C10            3.8453     2.4224     1.7722 C.ar    
  11 C11            4.1704     3.5924     1.1115 C.ar    
  12 C12            5.4880     3.8644     0.7951 C.ar    
  13 C13            6.4817     2.9655     1.1397 C.ar    
  14 C14            6.1557     1.7948     1.8009 C.ar    
  15 C15            4.8384     1.5265     2.1218 C.ar    
  16 Cl16           8.1369     3.3062     0.7421 Cl      
  17 C17            2.4135    -2.9180    -0.1330 C.2     
  18 C18            2.0112    -4.2663    -0.0930 C.2     
  19 C19            0.6702    -4.2934     0.0382 C.2     
  20 N20            0.2136    -3.0011     0.0874 N.am    
  21 C21           -1.0742    -2.6243     0.2148 C.2     
  22 O22           -2.0505    -3.5501     0.2020 O.3     
  23 O23           -1.3533    -1.4492     0.3412 O.2     
  24 C24           -3.4142    -3.0721     0.3440 C.3     
  25 C25           -3.7409    -2.1141    -0.8034 C.3     
  26 C26           -4.3776    -4.2601     0.3065 C.3     
  27 C27           -3.5610    -2.3383     1.6785 C.3     
  28 H28            0.0851     1.9273    -1.8362 H       
  29 H29            0.1394    -0.5231    -1.8804 H       
  30 H30            2.3209    -0.4920     1.8116 H       
  31 H31            1.8731     3.0621     2.2777 H       
  32 H32            2.3691     1.5246     3.0249 H       
  33 H33            3.3946     4.2938     0.8422 H       
  34 H34            5.7419     4.7783     0.2786 H       
  35 H35            6.9310     1.0927     2.0701 H       
  36 H36            4.5838     0.6126     2.6379 H       
  37 H37            3.4262    -2.5564    -0.2328 H       
  38 H38            2.6616    -5.1262    -0.1562 H       
  39 H39            0.0591    -5.1819     0.0980 H       
  40 H40           -3.6363    -2.6369    -1.7541 H       
  41 H41           -4.7646    -1.7553    -0.6968 H       
  42 H42           -3.0546    -1.2678    -0.7767 H       
  43 H43           -4.1448    -4.9425     1.1239 H       
  44 H44           -5.4013    -3.9012     0.4131 H       
  45 H45           -4.2730    -4.7828    -0.6442 H       
  46 H46           -2.8747    -1.4919     1.7052 H       
  47 H47           -4.5847    -1.9794     1.7851 H       
  48 H48           -3.3282    -3.0208     2.4959 H       
@<TRIPOS>BOND
   1    1    2 2
   2    1    6 1
   3    1   28 1
   4    2    3 1
   5    2   29 1
   6    3    4 2
   7    3    7 1
   8    4    5 1
   9    4   30 1
  10    5    6 am
  11    5    8 1
  12    6    9 2
  13    7   17 2
  14    7   20 1
  15    8   10 1
  16    8   31 1
  17    8   32 1
  18   10   11 ar
  19   10   15 ar
  20   11   12 ar
  21   11   33 1
  22   12   13 ar
  23   12   34 1
  24   13   14 ar
  25   13   16 1
  26   14   15 ar
  27   14   35 1
  28   15   36 1
  29   17   18 1
  30   17   37 1
  31   18   19 2
  32   18   38 1
  33   19   20 1
  34   19   39 1
  35   20   21 am
  36   21   22 1
  37   21   23 2
  38   22   24 1
  39   24   25 1
  40   24   26 1
  41   24   27 1
  42   25   40 1
  43   25   41 1
  44   25   42 1
  45   26   43 1
  46   26   44 1
  47   26   45 1
  48   27   46 1
  49   27   47 1
  50   27   48 1

#	End of record

