#	Name: ASD01883837
#	Creating user name:	WinNT
#	Creation time:	15. 06. 2019 19:47

#	Modifying user name:	WinNT
#	Modification time:	15. 06. 2019 19:47

#	Program:	/corina/corina34_cracker 3.40 0067  02.08.2006

@<TRIPOS>MOLECULE
ASD01883837
  41   44    0    0    0
SMALL
NO_CHARGES


@<TRIPOS>ATOM
   1 C1             0.2774     2.4966    -0.0116 C.ar    
   2 C2             0.0436     1.1735     0.3338 C.ar    
   3 C3             1.0867     0.2740     0.4013 C.ar    
   4 C4             2.3785     0.6972     0.1209 C.ar    
   5 C5             2.6147     2.0376    -0.2295 C.ar    
   6 C6             1.5425     2.9310    -0.2909 C.ar    
   7 N7             3.6103     0.0742     0.0961 N.pl3   
   8 C8             4.5311     1.0121    -0.2547 C.2     
   9 N9             3.9497     2.1604    -0.4452 N.2     
  10 C10            3.8765    -1.3354     0.3933 C.3     
  11 C11            4.0426    -1.5125     1.8806 C.ar    
  12 C12            2.9312    -1.6896     2.6834 C.ar    
  13 C13            3.0823    -1.8517     4.0475 C.ar    
  14 C14            5.4602    -1.6653     3.8042 C.ar    
  15 C15            5.3067    -1.5034     2.4403 C.ar    
  16 C16            4.3474    -1.8371     4.6100 C.ar    
  17 F17            4.4963    -1.9954     5.9434 F       
  18 C18            6.0093     0.7583    -0.4006 C.3     
  19 C19            6.3307     0.4777    -1.8459 C.ar    
  20 C20            6.5777     1.5241    -2.7148 C.ar    
  21 C21            6.8724     1.2667    -4.0406 C.ar    
  22 C22            6.9205    -0.0371    -4.4975 C.ar    
  23 C23            6.6743    -1.0835    -3.6284 C.ar    
  24 C24            6.3839    -0.8263    -2.3016 C.ar    
  25 H25           -0.5495     3.1893    -0.0646 H       
  26 H26           -0.9621     0.8457     0.5517 H       
  27 H27            0.8994    -0.7547     0.6714 H       
  28 H28            1.7131     3.9631    -0.5594 H       
  29 H29            3.0416    -1.9440     0.0459 H       
  30 H30            4.7894    -1.6475    -0.1140 H       
  31 H31            1.9445    -1.7010     2.2445 H       
  32 H32            2.2138    -1.9893     4.6747 H       
  33 H33            6.4478    -1.6582     4.2412 H       
  34 H34            6.1745    -1.3694     1.8116 H       
  35 H35            6.5632     1.6367    -0.0692 H       
  36 H36            6.2923    -0.1006     0.2079 H       
  37 H37            6.5401     2.5427    -2.3579 H       
  38 H38            7.0647     2.0843    -4.7196 H       
  39 H39            7.1500    -0.2381    -5.5335 H       
  40 H40            6.7115    -2.1021    -3.9854 H       
  41 H41            6.1916    -1.6438    -1.6226 H       
@<TRIPOS>BOND
   1    1    2 ar
   2    1    6 ar
   3    1   25 1
   4    2    3 ar
   5    2   26 1
   6    3    4 ar
   7    3   27 1
   8    4    5 ar
   9    4    7 1
  10    5    6 ar
  11    5    9 1
  12    6   28 1
  13    7    8 1
  14    7   10 1
  15    8    9 2
  16    8   18 1
  17   10   11 1
  18   10   29 1
  19   10   30 1
  20   11   12 ar
  21   11   15 ar
  22   12   13 ar
  23   12   31 1
  24   13   16 ar
  25   13   32 1
  26   14   15 ar
  27   14   16 ar
  28   14   33 1
  29   15   34 1
  30   16   17 1
  31   18   19 1
  32   18   35 1
  33   18   36 1
  34   19   20 ar
  35   19   24 ar
  36   20   21 ar
  37   20   37 1
  38   21   22 ar
  39   21   38 1
  40   22   23 ar
  41   22   39 1
  42   23   24 ar
  43   23   40 1
  44   24   41 1

#	End of record

