#	Name: ASD03090743
#	Creating user name:	WinNT
#	Creation time:	15. 06. 2019 20:29

#	Modifying user name:	WinNT
#	Modification time:	15. 06. 2019 20:29

#	Program:	/corina/corina34_cracker 3.40 0067  02.08.2006

@<TRIPOS>MOLECULE
ASD03090743
  47   51    0    0    0
SMALL
NO_CHARGES


@<TRIPOS>ATOM
   1 N1             0.5723     1.3241     0.0485 N.pl3   
   2 C2             0.0021    -0.0041     0.0020 C.3     
   3 C3             0.8409    -1.0172    -0.7487 C.3     
   4 C4             2.3430    -0.8675    -0.5170 C.3     
   5 C5             2.8102     0.5414    -0.3744 C.ar    
   6 C6             4.1627     0.8204    -0.5104 C.ar    
   7 C7             4.6266     2.1152    -0.3965 C.ar    
   8 C8             3.7444     3.1506    -0.1461 C.ar    
   9 C9             2.3980     2.8841    -0.0039 C.ar    
  10 C10            1.9289     1.5791    -0.1121 C.ar    
  11 C11            2.6458    -1.6917     0.7082 C.2     
  12 C12            1.6797    -2.5479     0.9284 C.2     
  13 C13            0.5915    -2.4144    -0.1140 C.3     
  14 S14            6.3477     2.4501    -0.5701 S.o2    
  15 O15            6.5901     3.6709     0.1156 O.2     
  16 O16            7.0251     1.2390    -0.2639 O.2     
  17 N17            6.6293     2.7507    -2.1740 N.am    
  18 C18           -0.1879    -0.4930     1.4148 C.ar    
  19 C19            0.7540    -0.2310     2.3620 C.ar    
  20 C20            0.5957    -0.6748     3.6732 C.ar    
  21 C21           -0.5058    -1.3829     4.0453 C.ar    
  22 C22           -1.4997    -1.6723     3.0954 C.ar    
  23 C23           -2.6505    -2.4011     3.4419 C.ar    
  24 C24           -3.5922    -2.6628     2.4949 C.ar    
  25 C25           -3.4336    -2.2191     1.1832 C.ar    
  26 C26           -2.3325    -1.5113     0.8111 C.ar    
  27 C27           -1.3410    -1.2165     1.7626 C.ar    
  28 H28            0.6053    -1.0073    -1.8129 H       
  29 H29            2.8668    -1.3209    -1.3586 H       
  30 H30           -0.0231     2.0757     0.1954 H       
  31 H31           -0.9765     0.0559    -0.4742 H       
  32 H32            4.8580     0.0177    -0.7066 H       
  33 H33            4.1081     4.1640    -0.0618 H       
  34 H34            1.7068     3.6906     0.1919 H       
  35 H35            3.5322    -1.5908     1.3168 H       
  36 H36            1.6621    -3.2545     1.7450 H       
  37 H37           -0.3920    -2.4505     0.3545 H       
  38 H38            0.6857    -3.1975    -0.8664 H       
  39 H39            5.8970     2.7189    -2.8093 H       
  40 H40            7.5266     2.9587    -2.4783 H       
  41 H41            1.6375     0.3289     2.0929 H       
  42 H42            1.3584    -0.4540     4.4052 H       
  43 H43           -0.6148    -1.7207     5.0653 H       
  44 H44           -2.7865    -2.7518     4.4542 H       
  45 H45           -4.4755    -3.2230     2.7638 H       
  46 H46           -4.1959    -2.4407     0.4510 H       
  47 H47           -2.2228    -1.1746    -0.2092 H       
@<TRIPOS>BOND
   1    1    2 1
   2    1   10 1
   3    1   30 1
   4    2    3 1
   5    2   18 1
   6    2   31 1
   7    3    4 1
   8    3   28 1
   9    3   13 1
  10    4    5 1
  11    4   29 1
  12    4   11 1
  13    5    6 ar
  14    5   10 ar
  15    6    7 ar
  16    6   32 1
  17    7    8 ar
  18    7   14 1
  19    8    9 ar
  20    8   33 1
  21    9   10 ar
  22    9   34 1
  23   11   12 2
  24   11   35 1
  25   12   13 1
  26   12   36 1
  27   13   37 1
  28   13   38 1
  29   14   15 2
  30   14   16 2
  31   14   17 am
  32   17   39 1
  33   17   40 1
  34   18   19 ar
  35   18   27 ar
  36   19   20 ar
  37   19   41 1
  38   20   21 ar
  39   20   42 1
  40   21   22 ar
  41   21   43 1
  42   22   23 ar
  43   22   27 ar
  44   23   24 ar
  45   23   44 1
  46   24   25 ar
  47   24   45 1
  48   25   26 ar
  49   25   46 1
  50   26   27 ar
  51   26   47 1

#	End of record

