#	Name: ASD04330003
#	Creating user name:	WinNT
#	Creation time:	15. 06. 2019 20:48

#	Modifying user name:	WinNT
#	Modification time:	15. 06. 2019 20:48

#	Program:	/corina/corina34_cracker 3.40 0067  02.08.2006

@<TRIPOS>MOLECULE
ASD04330003
  92   90    0    0    0
SMALL
NO_CHARGES


@<TRIPOS>ATOM
   1 F1            -1.0184    -2.1471     0.0003 F       
   2 F2            -2.0416    -0.4412    -1.1232 F       
   3 F3            -2.0198    -0.4534     1.1613 F       
   4 O4            -0.0161     1.3381     0.0094 O.3     
   5 O5             1.0565    -0.5939    -0.0112 O.2     
   6 C6            -1.2926    -0.7753     0.0102 C.3     
   7 C7             0.0021    -0.0041     0.0020 C.2     
   8 H8             0.8394     1.7888     0.0037 H       
   9 O9            13.3617     8.4859    22.3574 O.2     
  10 O10           12.7629     9.4900    15.4184 O.2     
  11 O11           11.5332    11.5024    19.3951 O.2     
  12 O12           14.7961    11.8957    20.1735 O.3     
  13 O13            9.5563    11.3049    12.6257 O.2     
  14 O14            8.1118     8.5478    11.4569 O.2     
  15 O15           10.8911     9.8436    26.1484 O.2     
  16 O16           12.8674    15.8019    18.6222 O.3     
  17 O17           13.4664    15.1965    16.5830 O.2     
  18 N18           12.6862    10.4091    21.4817 N.am    
  19 N19           10.2828     9.9538    11.0229 N.am    
  20 N20           12.7759    10.5948    17.7971 N.am    
  21 N21           12.2387     8.7845    24.7398 N.am    
  22 N22           11.4998    10.9717    14.3549 N.am    
  23 N23            6.7956     9.4595     9.9212 N.am    
  24 C24           13.3850    10.9338    24.5217 C.3     
  25 C25           12.3699     9.9751    23.8963 C.3     
  26 C26           13.4215    12.2343    23.7165 C.3     
  27 C27            9.4835    10.0203     8.7125 C.3     
  28 C28           10.5357    11.0415     8.2754 C.3     
  29 C29            9.1229    10.2562    10.1806 C.3     
  30 C30           12.0194    11.2893    16.7524 C.3     
  31 C31           13.2298    10.0554    20.1681 C.3     
  32 C32           12.8418     9.5689    22.5239 C.2     
  33 C33           12.5940    12.6935    16.5546 C.3     
  34 C34           11.5989    10.2223    13.1000 C.3     
  35 C35           12.0851    12.9643    23.8659 C.3     
  36 C36           14.5505    13.1255    24.2379 C.3     
  37 C37           12.1214    10.5184    15.4615 C.2     
  38 C38           12.4515    10.7699    19.0934 C.2     
  39 C39           11.0059    10.7138     6.8568 C.3     
  40 C40            9.9256    12.4444     8.2992 C.3     
  41 C41           10.4058    10.5332    12.2336 C.2     
  42 C42            7.9747     9.3595    10.5662 C.2     
  43 C43           14.7001    10.4721    20.0955 C.3     
  44 C44           12.3779    13.5167    17.8260 C.3     
  45 C45           12.8803    10.6232    12.3665 C.3     
  46 C46           11.4350     8.8101    25.8214 C.2     
  47 C47           12.9438    14.8997    17.6312 C.2     
  48 C48           11.2121     7.5545    26.6245 C.3     
  49 H49           15.7020    12.2316    20.1334 H       
  50 H50           13.2444    16.6757    18.4504 H       
  51 H51           12.2143    11.2481    21.6014 H       
  52 H52           10.9623     9.3367    10.7094 H       
  53 H53           13.5104    10.0088    17.5558 H       
  54 H54           12.7303     7.9777    24.5199 H       
  55 H55           10.9867    11.7942    14.3894 H       
  56 H56            6.0565     8.8824    10.1694 H       
  57 H57            6.6859    10.1087     9.2088 H       
  58 H58           13.0944    11.1509    25.5495 H       
  59 H59           14.3730    10.4733    24.5130 H       
  60 H60           11.4029    10.4716    23.8158 H       
  61 H61           13.5950    12.0059    22.6649 H       
  62 H62            8.5910    10.1319     8.0968 H       
  63 H63            9.8832     9.0132     8.5938 H       
  64 H64           11.3849    11.0029     8.9576 H       
  65 H65            8.8336    11.2976    10.3209 H       
  66 H66           10.9733    11.3634    17.0496 H       
  67 H67           13.1496     8.9785    20.0197 H       
  68 H68           13.6612    12.6230    16.3444 H       
  69 H69           12.0901    13.1778    15.7181 H       
  70 H70           11.6228     9.1541    13.3157 H       
  71 H71           11.9444    13.2550    24.9070 H       
  72 H72           12.0851    13.8545    23.2369 H       
  73 H73           11.2740    12.3034    23.5604 H       
  74 H74           15.5025    12.6055    24.1314 H       
  75 H75           14.5765    14.0520    23.6642 H       
  76 H76           14.3769    13.3540    25.2894 H       
  77 H77           11.8165    11.3871     6.5781 H       
  78 H78           11.3604     9.6837     6.8204 H       
  79 H79           10.1758    10.8372     6.1613 H       
  80 H80            9.5906    12.6778     9.3098 H       
  81 H81           10.6752    13.1719     7.9878 H       
  82 H82            9.0764    12.4830     7.6169 H       
  83 H83           15.1286    10.1301    19.1534 H       
  84 H84           15.2459    10.0251    20.9264 H       
  85 H85           11.3107    13.5871    18.0362 H       
  86 H86           12.8818    13.0324    18.6625 H       
  87 H87           12.8565    11.6914    12.1508 H       
  88 H88           13.7433    10.3983    12.9932 H       
  89 H89           12.9541    10.0656    11.4328 H       
  90 H90           10.5385     7.7687    27.4542 H       
  91 H91           10.7708     6.7888    25.9866 H       
  92 H92           12.1659     7.1980    27.0135 H       
@<TRIPOS>BOND
   1    1    6 1
   2    2    6 1
   3    3    6 1
   4    4    7 1
   5    4    8 1
   6    5    7 2
   7    6    7 1
   8    9   32 2
   9   10   37 2
  10   11   38 2
  11   12   43 1
  12   12   49 1
  13   13   41 2
  14   14   42 2
  15   15   46 2
  16   16   47 1
  17   16   50 1
  18   17   47 2
  19   18   31 1
  20   18   32 am
  21   18   51 1
  22   19   29 1
  23   19   41 am
  24   19   52 1
  25   20   30 1
  26   20   38 am
  27   20   53 1
  28   21   25 1
  29   21   46 am
  30   21   54 1
  31   22   34 1
  32   22   37 am
  33   22   55 1
  34   23   42 am
  35   23   56 1
  36   23   57 1
  37   24   25 1
  38   24   26 1
  39   24   58 1
  40   24   59 1
  41   25   32 1
  42   25   60 1
  43   26   35 1
  44   26   36 1
  45   26   61 1
  46   27   28 1
  47   27   29 1
  48   27   62 1
  49   27   63 1
  50   28   39 1
  51   28   40 1
  52   28   64 1
  53   29   42 1
  54   29   65 1
  55   30   33 1
  56   30   37 1
  57   30   66 1
  58   31   38 1
  59   31   43 1
  60   31   67 1
  61   33   44 1
  62   33   68 1
  63   33   69 1
  64   34   41 1
  65   34   45 1
  66   34   70 1
  67   35   71 1
  68   35   72 1
  69   35   73 1
  70   36   74 1
  71   36   75 1
  72   36   76 1
  73   39   77 1
  74   39   78 1
  75   39   79 1
  76   40   80 1
  77   40   81 1
  78   40   82 1
  79   43   83 1
  80   43   84 1
  81   44   47 1
  82   44   85 1
  83   44   86 1
  84   45   87 1
  85   45   88 1
  86   45   89 1
  87   46   48 1
  88   48   90 1
  89   48   91 1
  90   48   92 1

#	End of record

