#	Name: ASD08150986
#	Creating user name:	WinNT
#	Creation time:	15. 06. 2019 21:16

#	Modifying user name:	WinNT
#	Modification time:	15. 06. 2019 21:16

#	Program:	/corina/corina34_cracker 3.40 0067  02.08.2006

@<TRIPOS>MOLECULE
ASD08150986
  36   38    0    0    0
SMALL
NO_CHARGES


@<TRIPOS>ATOM
   1 C1            -0.4023     1.4875     0.2693 C.ar    
   2 C2            -0.1313     0.1874    -0.1192 C.ar    
   3 C3             1.1799    -0.2508    -0.2652 C.ar    
   4 C4             2.2315     0.5828    -0.0309 C.ar    
   5 C5             2.0019     1.9114     0.3655 C.ar    
   6 C6             3.0696     2.7915     0.6140 C.ar    
   7 C7             2.8118     4.0720     0.9968 C.ar    
   8 C8             1.5029     4.5255     1.1468 C.ar    
   9 C9             0.4447     3.7000     0.9149 C.ar    
  10 C10            0.6721     2.3741     0.5185 C.ar    
  11 C11           -1.8025     1.9483     0.4167 C.ar    
  12 C12           -2.5969     1.4533     1.4505 C.ar    
  13 C13           -3.9021     1.8874     1.5829 C.ar    
  14 C14           -4.4206     2.8121     0.6902 C.ar    
  15 C15           -3.6359     3.3052    -0.3361 C.ar    
  16 C16           -2.3292     2.8828    -0.4743 C.ar    
  17 F17           -4.6739     1.4095     2.5835 F       
  18 C18           -1.2695    -0.7636    -0.3862 C.3     
  19 C19           -1.7347    -0.6081    -1.8354 C.3     
  20 N20           -0.8187    -2.1395    -0.1630 N.2     
  21 N21           -1.5517    -2.9890    -0.2305 N.1     
  22 N22           -2.2846    -3.8384    -0.2980 N.pl3   
  23 H23            1.3681    -1.2698    -0.5694 H       
  24 H24            3.2426     0.2222    -0.1496 H       
  25 H25            4.0892     2.4533     0.5020 H       
  26 H26            3.6337     4.7461     1.1875 H       
  27 H27            1.3249     5.5462     1.4516 H       
  28 H28           -0.5647     4.0648     1.0353 H       
  29 H29           -2.1931     0.7322     2.1457 H       
  30 H30           -5.4413     3.1486     0.7964 H       
  31 H31           -4.0452     4.0256    -1.0288 H       
  32 H32           -1.7167     3.2725    -1.2739 H       
  33 H33           -2.0966    -0.5385     0.2871 H       
  34 H34           -2.6143    -1.2295    -2.0033 H       
  35 H35           -1.9851     0.4354    -2.0266 H       
  36 H36           -0.9361    -0.9194    -2.5088 H       
@<TRIPOS>BOND
   1    1    2 ar
   2    1   10 ar
   3    1   11 1
   4    2    3 ar
   5    2   18 1
   6    3    4 ar
   7    3   23 1
   8    4    5 ar
   9    4   24 1
  10    5    6 ar
  11    5   10 ar
  12    6    7 ar
  13    6   25 1
  14    7    8 ar
  15    7   26 1
  16    8    9 ar
  17    8   27 1
  18    9   10 ar
  19    9   28 1
  20   11   12 ar
  21   11   16 ar
  22   12   13 ar
  23   12   29 1
  24   13   14 ar
  25   13   17 1
  26   14   15 ar
  27   14   30 1
  28   15   16 ar
  29   15   31 1
  30   16   32 1
  31   18   19 1
  32   18   20 1
  33   18   33 1
  34   19   34 1
  35   19   35 1
  36   19   36 1
  37   20   21 2
  38   21   22 2

#	End of record

