#	Name: ASD01510122
#	Creating user name:	WinNT
#	Creation time:	15. 06. 2019 19:21

#	Modifying user name:	WinNT
#	Modification time:	15. 06. 2019 19:21

#	Program:	/corina/corina34_cracker 3.40 0067  02.08.2006

@<TRIPOS>MOLECULE
ASD01510122
  70   73    0    0    0
SMALL
NO_CHARGES


@<TRIPOS>ATOM
   1 C1             2.3460     1.1212    -0.4740 C.3     
   2 N2             2.0159    -0.3090    -0.4143 N.3     
   3 C3             2.6317    -0.9430     0.7598 C.3     
   4 C4             2.2001    -2.4098     0.8293 C.3     
   5 N5             2.6018    -3.0951    -0.4071 N.3     
   6 C6             1.9860    -2.4610    -1.5812 C.3     
   7 C7             2.4177    -0.9943    -1.6507 C.3     
   8 C8             2.2902    -4.4451    -0.3507 C.ar    
   9 N9             1.7072    -4.9265     0.7356 N.ar    
  10 C10            1.3931    -6.2108     0.8282 C.ar    
  11 C11            1.6828    -7.0562    -0.2330 C.ar    
  12 C12            2.2997    -6.5136    -1.3666 C.ar    
  13 N13            2.5793    -5.2172    -1.3880 N.ar    
  14 O14            2.6026    -7.3006    -2.4284 O.3     
  15 C15            3.2312    -6.6692    -3.5456 C.3     
  16 C16            3.4899    -7.6927    -4.6210 C.ar    
  17 C17            2.5339    -7.9340    -5.5900 C.ar    
  18 C18            2.7713    -8.8728    -6.5764 C.ar    
  19 C19            3.9647    -9.5701    -6.5942 C.ar    
  20 C20            4.9211    -9.3282    -5.6258 C.ar    
  21 C21            4.6855    -8.3862    -4.6419 C.ar    
  22 S22            1.2845    -8.7708    -0.1558 S.3     
  23 C23            0.6965    -8.9672     1.4936 C.ar    
  24 C24           -0.6636    -8.8684     1.7640 C.ar    
  25 C25           -1.1248    -9.0218     3.0571 C.ar    
  26 C26           -0.2371    -9.2743     4.0853 C.ar    
  27 C27            1.1237    -9.3748     3.8219 C.ar    
  28 C28            1.5905    -9.2266     2.5243 C.ar    
  29 N29            2.0217    -9.6305     4.8642 N.am    
  30 C30            1.6459   -10.4021     5.9033 C.2     
  31 O31            0.5644   -10.9511     5.8911 O.2     
  32 C32            2.5693   -10.5827     7.0804 C.3     
  33 C33            2.4692    -9.3633     7.9990 C.3     
  34 C34            3.4068    -9.5467     9.1941 C.3     
  35 C35            2.8706    -8.1067     7.2241 C.3     
  36 N36            2.1840   -11.7893     7.8245 N.3     
  37 H37            3.4273     1.2421    -0.5384 H       
  38 H38            1.8777     1.5658    -1.3522 H       
  39 H39            1.9778     1.6169     0.4242 H       
  40 H40            3.7170    -0.8869     0.6760 H       
  41 H41            2.3092    -0.4258     1.6634 H       
  42 H42            2.6787    -2.8896     1.6830 H       
  43 H43            1.1172    -2.4653     0.9404 H       
  44 H44            2.3086    -2.9782    -2.4848 H       
  45 H45            0.9007    -2.5171    -1.4974 H       
  46 H46            1.9391    -0.5144    -2.5044 H       
  47 H47            3.5006    -0.9388    -1.7618 H       
  48 H48            0.9178    -6.5945     1.7189 H       
  49 H49            2.5784    -5.8886    -3.9364 H       
  50 H50            4.1762    -6.2278    -3.2292 H       
  51 H51            1.6015    -7.3892    -5.5760 H       
  52 H52            2.0241    -9.0618    -7.3330 H       
  53 H53            4.1499   -10.3041    -7.3645 H       
  54 H54            5.8534    -9.8732    -5.6396 H       
  55 H55            5.4327    -8.1972    -3.8853 H       
  56 H56           -1.3601    -8.6711     0.9626 H       
  57 H57           -2.1818    -8.9439     3.2649 H       
  58 H58           -0.6012    -9.3934     5.0950 H       
  59 H59            2.6475    -9.3047     2.3171 H       
  60 H60            2.9146    -9.2525     4.8388 H       
  61 H61            3.5946   -10.6869     6.7253 H       
  62 H62            1.4440    -9.2592     8.3542 H       
  63 H63            4.4320    -9.6508     8.8390 H       
  64 H64            3.3354    -8.6779     9.8486 H       
  65 H65            3.1208   -10.4419     9.7463 H       
  66 H66            2.2026    -7.9760     6.3727 H       
  67 H67            2.7992    -7.2379     7.8785 H       
  68 H68            3.8958    -8.2108     6.8689 H       
  69 H69            1.2367   -11.7173     8.1646 H       
  70 H70            2.3033   -12.6164     7.2591 H       
@<TRIPOS>BOND
   1    1    2 1
   2    1   37 1
   3    1   38 1
   4    1   39 1
   5    2    3 1
   6    2    7 1
   7    3    4 1
   8    3   40 1
   9    3   41 1
  10    4    5 1
  11    4   42 1
  12    4   43 1
  13    5    6 1
  14    5    8 1
  15    6    7 1
  16    6   44 1
  17    6   45 1
  18    7   46 1
  19    7   47 1
  20    8    9 ar
  21    8   13 ar
  22    9   10 ar
  23   10   11 ar
  24   10   48 1
  25   11   12 ar
  26   11   22 1
  27   12   13 ar
  28   12   14 1
  29   14   15 1
  30   15   16 1
  31   15   49 1
  32   15   50 1
  33   16   17 ar
  34   16   21 ar
  35   17   18 ar
  36   17   51 1
  37   18   19 ar
  38   18   52 1
  39   19   20 ar
  40   19   53 1
  41   20   21 ar
  42   20   54 1
  43   21   55 1
  44   22   23 1
  45   23   24 ar
  46   23   28 ar
  47   24   25 ar
  48   24   56 1
  49   25   26 ar
  50   25   57 1
  51   26   27 ar
  52   26   58 1
  53   27   28 ar
  54   27   29 1
  55   28   59 1
  56   29   30 am
  57   29   60 1
  58   30   31 2
  59   30   32 1
  60   32   33 1
  61   32   36 1
  62   32   61 1
  63   33   34 1
  64   33   35 1
  65   33   62 1
  66   34   63 1
  67   34   64 1
  68   34   65 1
  69   35   66 1
  70   35   67 1
  71   35   68 1
  72   36   69 1
  73   36   70 1

#	End of record

