#	Name: ASD02440066
#	Creating user name:	WinNT
#	Creation time:	15. 06. 2019 20:21

#	Modifying user name:	WinNT
#	Modification time:	15. 06. 2019 20:21

#	Program:	/corina/corina34_cracker 3.40 0067  02.08.2006

@<TRIPOS>MOLECULE
ASD02440066
  62   66    0    0    0
SMALL
NO_CHARGES


@<TRIPOS>ATOM
   1 N1             0.0420     1.4826     0.6534 N.am    
   2 C2             0.0471     0.1254     0.8221 C.2     
   3 S3             1.7181    -0.4118     0.5786 S.3     
   4 C4             2.3501     1.2146     0.2579 C.2     
   5 C5             1.1801     2.0917     0.3658 C.2     
   6 N6            -0.9870    -0.6333     1.1091 N.2     
   7 C7            -1.2015     2.2463     0.7830 C.3     
   8 C8            -1.3768     2.6815     2.2150 C.ar    
   9 O9             1.2512     3.2956     0.2017 O.2     
  10 C10            3.6300     1.5678    -0.0238 C.2     
  11 C11            4.7046     0.5715     0.0714 C.ar    
  12 C12            5.9062     0.7655    -0.6211 C.ar    
  13 C13            6.9103    -0.1719    -0.5282 C.ar    
  14 C14            6.7328    -1.3095     0.2506 C.ar    
  15 C15            5.5419    -1.5074     0.9398 C.ar    
  16 C16            4.5337    -0.5733     0.8595 C.ar    
  17 C17           -2.2146     2.2566     4.4179 C.ar    
  18 C18           -2.0501     1.8642     3.1057 C.ar    
  19 C19           -0.8589     3.8940     2.6347 C.ar    
  20 C20           -1.0157     4.2985     3.9441 C.ar    
  21 C21           -1.6991     3.4813     4.8468 C.ar    
  22 C22           -1.8718     3.9084     6.2504 C.2     
  23 O23           -2.4634     3.1936     7.0343 O.2     
  24 O24           -1.3731     5.0905     6.6609 O.3     
  25 O25            7.7262    -2.2309     0.3382 O.3     
  26 C26            7.4782    -3.3765     1.1557 C.3     
  27 C27            8.6833    -4.2810     1.1318 C.ar    
  28 C28            9.6881    -4.1186     2.0671 C.ar    
  29 C29           10.7935    -4.9482     2.0452 C.ar    
  30 C30           10.8940    -5.9407     1.0882 C.ar    
  31 C31            9.8887    -6.1038     0.1535 C.ar    
  32 C32            8.7812    -5.2769     0.1781 C.ar    
  33 C33           -0.8262    -1.9850     1.2481 C.ar    
  34 C34           -1.4226    -2.6563     2.3180 C.ar    
  35 C35           -1.2562    -4.0189     2.4519 C.ar    
  36 C36           -0.5002    -4.7209     1.5297 C.ar    
  37 C37            0.0936    -4.0624     0.4673 C.ar    
  38 C38           -0.0695    -2.7010     0.3175 C.ar    
  39 H39           -1.1571     3.1247     0.1391 H       
  40 H40           -2.0442     1.6213     0.4874 H       
  41 H41            3.8581     2.5817    -0.3179 H       
  42 H42            6.0449     1.6486    -1.2270 H       
  43 H43            7.8374    -0.0233    -1.0619 H       
  44 H44            5.4092    -2.3933     1.5432 H       
  45 H45            3.6089    -0.7281     1.3954 H       
  46 H46           -2.7410     1.6181     5.1118 H       
  47 H47           -2.4481     0.9170     2.7727 H       
  48 H48           -0.3303     4.5250     1.9355 H       
  49 H49           -0.6107     5.2450     4.2704 H       
  50 H50           -1.5111     5.3269     7.5884 H       
  51 H51            7.2838    -3.0571     2.1795 H       
  52 H52            6.6117    -3.9155     0.7726 H       
  53 H53            9.6096    -3.3432     2.8148 H       
  54 H54           11.5789    -4.8208     2.7755 H       
  55 H55           11.7580    -6.5885     1.0707 H       
  56 H56            9.9674    -6.8790    -0.5944 H       
  57 H57            7.9959    -5.4043    -0.5522 H       
  58 H58           -2.0124    -2.1095     3.0389 H       
  59 H59           -1.7168    -4.5392     3.2787 H       
  60 H60           -0.3726    -5.7876     1.6399 H       
  61 H61            0.6826    -4.6164    -0.2485 H       
  62 H62            0.3945    -2.1883    -0.5121 H       
@<TRIPOS>BOND
   1    1    2 1
   2    1    5 am
   3    1    7 1
   4    2    3 1
   5    2    6 2
   6    3    4 1
   7    4    5 1
   8    4   10 2
   9    5    9 2
  10    6   33 1
  11    7    8 1
  12    7   39 1
  13    7   40 1
  14    8   19 ar
  15    8   18 ar
  16   10   11 1
  17   10   41 1
  18   11   12 ar
  19   11   16 ar
  20   12   13 ar
  21   12   42 1
  22   13   14 ar
  23   13   43 1
  24   14   15 ar
  25   14   25 1
  26   15   16 ar
  27   15   44 1
  28   16   45 1
  29   17   18 ar
  30   17   21 ar
  31   17   46 1
  32   18   47 1
  33   19   20 ar
  34   19   48 1
  35   20   21 ar
  36   20   49 1
  37   21   22 1
  38   22   23 2
  39   22   24 1
  40   24   50 1
  41   25   26 1
  42   26   27 1
  43   26   51 1
  44   26   52 1
  45   27   28 ar
  46   27   32 ar
  47   28   29 ar
  48   28   53 1
  49   29   30 ar
  50   29   54 1
  51   30   31 ar
  52   30   55 1
  53   31   32 ar
  54   31   56 1
  55   32   57 1
  56   33   34 ar
  57   33   38 ar
  58   34   35 ar
  59   34   58 1
  60   35   36 ar
  61   35   59 1
  62   36   37 ar
  63   36   60 1
  64   37   38 ar
  65   37   61 1
  66   38   62 1

#	End of record

