#	Name: ASD00070053
#	Creating user name:	WinNT
#	Creation time:	15. 06. 2019 18:30

#	Modifying user name:	WinNT
#	Modification time:	15. 06. 2019 18:30

#	Program:	/corina/corina34_cracker 3.40 0067  02.08.2006

@<TRIPOS>MOLECULE
ASD00070053
  65   68    0    0    0
SMALL
NO_CHARGES


@<TRIPOS>ATOM
   1 C1            -0.0184     1.5028     0.0103 C.2     
   2 C2             0.0021    -0.0041     0.0020 C.3     
   3 C3            -0.6130    -0.5153    -1.3023 C.3     
   4 O4             1.0236     2.1234     0.0037 O.2     
   5 N5            -1.1946     2.1607     0.0195 N.am    
   6 O6             1.3516    -0.4627     0.1041 O.3     
   7 F7             0.1268    -0.0329    -2.3873 F       
   8 F8            -0.5941    -1.9141    -1.3100 F       
   9 F9            -1.9342    -0.0663    -1.4022 F       
  10 C10           -1.2145     3.6256     0.0275 C.3     
  11 C11           -2.5315     4.1210    -0.5732 C.3     
  12 C12           -2.5522     5.6509    -0.5648 C.3     
  13 C13           -2.4266     6.1547     0.8744 C.3     
  14 C14           -1.1096     5.6592     1.4751 C.3     
  15 C15           -1.0888     4.1294     1.4667 C.3     
  16 C16           -2.4474     7.6846     0.8828 C.3     
  17 C17           -2.4475     8.1867     2.3281 C.3     
  18 N18           -2.4674     9.6555     2.3362 N.3     
  19 C19           -2.7062    10.1711     3.6902 C.3     
  20 C20           -2.8652    11.6923     3.6376 C.3     
  21 C21           -1.5944    12.3135     3.0515 C.3     
  22 C22           -1.3419    11.7238     1.6611 C.3     
  23 C23           -1.2270    10.2018     1.7711 C.3     
  24 O24           -0.1300    16.6738     4.2829 O.3     
  25 C25            0.9559    15.7746     4.5638 C.3     
  26 C26            0.2716    14.3876     4.5232 C.3     
  27 C27           -0.9151    14.6506     3.6164 C.ar    
  28 C28           -1.0650    16.0292     3.5322 C.ar    
  29 C29           -1.7681    13.8064     2.9414 C.ar    
  30 C30           -2.7847    14.3293     2.1614 C.ar    
  31 C31           -2.9392    15.6996     2.0636 C.ar    
  32 C32           -2.0875    16.5473     2.7417 C.ar    
  33 H33           -0.5743    -0.3799     0.8474 H       
  34 H34           -2.0280     1.6644     0.0207 H       
  35 H35            1.9236    -0.1656    -0.6168 H       
  36 H36           -0.3805     4.0035    -0.5638 H       
  37 H37           -2.6210     3.7621    -1.5985 H       
  38 H38           -3.3655     3.7431     0.0182 H       
  39 H39           -1.7182     6.0288    -1.1561 H       
  40 H40           -3.4905     6.0039    -0.9927 H       
  41 H41           -3.2606     5.7768     1.4658 H       
  42 H42           -0.2756     6.0372     0.8838 H       
  43 H43           -1.0201     6.0182     2.5004 H       
  44 H44           -1.9228     3.7515     2.0581 H       
  45 H45           -0.1506     3.7764     1.8947 H       
  46 H46           -1.5649     8.0627     0.3669 H       
  47 H47           -3.3446     8.0386     0.3752 H       
  48 H48           -3.3300     7.8085     2.8441 H       
  49 H49           -1.5502     7.8327     2.8358 H       
  50 H50           -3.6149     9.7247     4.0939 H       
  51 H51           -1.8614     9.9163     4.3301 H       
  52 H52           -3.7183    11.9474     3.0089 H       
  53 H53           -3.0269    12.0764     4.6448 H       
  54 H54           -0.7475    12.0913     3.7007 H       
  55 H55           -2.1710    11.9795     1.0013 H       
  56 H56           -0.4152    12.1304     1.2562 H       
  57 H57           -0.3891     9.9467     2.4199 H       
  58 H58           -1.0614     9.7776     0.7807 H       
  59 H59            1.7262    15.8477     3.7961 H       
  60 H60            1.3736    15.9702     5.5513 H       
  61 H61            0.9345    13.6386     4.0899 H       
  62 H62           -0.0573    14.0862     5.5177 H       
  63 H63           -3.4548    13.6692     1.6307 H       
  64 H64           -3.7304    16.1088     1.4530 H       
  65 H65           -2.2153    17.6167     2.6601 H       
@<TRIPOS>BOND
   1    1    2 1
   2    1    4 2
   3    1    5 am
   4    2    3 1
   5    2    6 1
   6    2   33 1
   7    3    7 1
   8    3    8 1
   9    3    9 1
  10    5   10 1
  11    5   34 1
  12    6   35 1
  13   10   11 1
  14   10   15 1
  15   10   36 1
  16   11   12 1
  17   11   37 1
  18   11   38 1
  19   12   13 1
  20   12   39 1
  21   12   40 1
  22   13   14 1
  23   13   16 1
  24   13   41 1
  25   14   15 1
  26   14   42 1
  27   14   43 1
  28   15   44 1
  29   15   45 1
  30   16   17 1
  31   16   46 1
  32   16   47 1
  33   17   18 1
  34   17   48 1
  35   17   49 1
  36   18   19 1
  37   18   23 1
  38   19   20 1
  39   19   50 1
  40   19   51 1
  41   20   21 1
  42   20   52 1
  43   20   53 1
  44   21   22 1
  45   21   29 1
  46   21   54 1
  47   22   23 1
  48   22   55 1
  49   22   56 1
  50   23   57 1
  51   23   58 1
  52   24   25 1
  53   24   28 1
  54   25   26 1
  55   25   59 1
  56   25   60 1
  57   26   27 1
  58   26   61 1
  59   26   62 1
  60   27   28 ar
  61   27   29 ar
  62   28   32 ar
  63   29   30 ar
  64   30   31 ar
  65   30   63 1
  66   31   32 ar
  67   31   64 1
  68   32   65 1

#	End of record

