#	Name: ASD01911904
#	Creating user name:	WinNT
#	Creation time:	15. 06. 2019 19:58

#	Modifying user name:	WinNT
#	Modification time:	15. 06. 2019 19:58

#	Program:	/corina/corina34_cracker 3.40 0067  02.08.2006

@<TRIPOS>MOLECULE
ASD01911904
  36   38    0    0    0
SMALL
NO_CHARGES


@<TRIPOS>ATOM
   1 C1            -1.0488    -0.4840    -2.0513 C.ar    
   2 C2            -1.0617     0.0599    -0.7710 C.ar    
   3 C3            -1.0260     1.4447    -0.6426 C.ar    
   4 N4            -0.9813     2.1897    -1.7348 N.ar    
   5 C5            -0.9704     1.6365    -2.9309 C.ar    
   6 N6            -1.0033     0.3291    -3.0938 N.ar    
   7 O7            -1.1085    -0.7409     0.3261 O.3     
   8 C8            -1.1452    -2.0854     0.1334 C.ar    
   9 C9             0.0138    -2.7701    -0.2047 C.ar    
  10 C10           -0.0223    -4.1395    -0.4013 C.ar    
  11 C11           -1.2140    -4.8290    -0.2617 C.ar    
  12 C12           -2.3757    -4.1472     0.0761 C.ar    
  13 C13           -2.3390    -2.7745     0.2800 C.ar    
  14 N14           -3.5802    -4.8437     0.2169 N.am    
  15 C15           -3.5760    -6.1115     0.6742 C.2     
  16 C16           -4.8358    -6.8834     0.7239 C.ar    
  17 O17           -2.5364    -6.6202     1.0459 O.2     
  18 C18           -6.0312    -6.3005     0.2973 C.ar    
  19 C19           -7.2089    -7.0202     0.3425 C.ar    
  20 C20           -7.2140    -8.3192     0.8095 C.ar    
  21 C21           -6.0252    -8.9150     1.2395 C.ar    
  22 C22           -4.8323    -8.1962     1.1911 C.ar    
  23 C23           -6.0320   -10.2625     1.7241 C.1     
  24 F24            1.1071    -4.8039    -0.7304 F       
  25 N25           -6.0375   -11.3315     2.1085 N.1     
  26 H26           -1.0710    -1.5545    -2.1921 H       
  27 H27           -1.0349     1.9048     0.3345 H       
  28 H28           -0.9340     2.2729    -3.8027 H       
  29 H29            0.9447    -2.2336    -0.3149 H       
  30 H30           -1.2407    -5.8977    -0.4158 H       
  31 H31           -3.2414    -2.2427     0.5431 H       
  32 H32           -4.4186    -4.4144    -0.0147 H       
  33 H33           -6.0345    -5.2843    -0.0685 H       
  34 H34           -8.1304    -6.5644     0.0114 H       
  35 H35           -8.1387    -8.8763     0.8428 H       
  36 H36           -3.9107    -8.6517     1.5222 H       
@<TRIPOS>BOND
   1    1    2 ar
   2    1    6 ar
   3    1   26 1
   4    2    3 ar
   5    2    7 1
   6    3    4 ar
   7    3   27 1
   8    4    5 ar
   9    5    6 ar
  10    5   28 1
  11    7    8 1
  12    8    9 ar
  13    8   13 ar
  14    9   10 ar
  15    9   29 1
  16   10   11 ar
  17   10   24 1
  18   11   12 ar
  19   11   30 1
  20   12   13 ar
  21   12   14 1
  22   13   31 1
  23   14   15 am
  24   14   32 1
  25   15   16 1
  26   15   17 2
  27   16   18 ar
  28   16   22 ar
  29   18   19 ar
  30   18   33 1
  31   19   20 ar
  32   19   34 1
  33   20   21 ar
  34   20   35 1
  35   21   22 ar
  36   21   23 1
  37   22   36 1
  38   23   25 3

#	End of record

