#	Name: ASD01230366
#	Creating user name:	WinNT
#	Creation time:	15. 06. 2019 19:14

#	Modifying user name:	WinNT
#	Modification time:	15. 06. 2019 19:14

#	Program:	/corina/corina34_cracker 3.40 0067  02.08.2006

@<TRIPOS>MOLECULE
ASD01230366
  35   37    0    0    0
SMALL
NO_CHARGES


@<TRIPOS>ATOM
   1 C1            -0.0167     1.3831     0.0096 C.ar    
   2 C2             0.0021    -0.0041     0.0020 C.ar    
   3 C3             1.2083    -0.6773    -0.0131 C.ar    
   4 C4             2.3962     0.0303    -0.0207 C.ar    
   5 C5             2.3801     1.4128    -0.0131 C.ar    
   6 C6             1.1765     2.0907     0.0021 C.ar    
   7 O7            -1.2021     2.0477     0.0189 O.3     
   8 S8             4.6421     0.4973    -3.7312 S.o2    
   9 N9             3.8966     0.0934    -2.3187 N.am    
  10 C10            4.4996    -0.3298    -1.2802 C.2     
  11 N11            5.8602    -0.4710    -1.1781 N.pl3   
  12 C12            6.7721     0.2814    -2.0324 C.3     
  13 C13            6.3871     0.0692    -3.4979 C.3     
  14 C14            3.7106    -0.7066    -0.0367 C.3     
  15 C15            4.5506    -0.2996     1.1766 C.3     
  16 C16            5.8718    -1.0559     1.2119 C.3     
  17 C17            6.3703    -1.4187    -0.1817 C.3     
  18 O18            4.0462    -0.3599    -4.6952 O.2     
  19 O19            4.4847     1.9071    -3.8155 O.2     
  20 H20           -0.9255    -0.5572     0.0083 H       
  21 H21            1.2235    -1.7571    -0.0187 H       
  22 H22            3.3093     1.9633    -0.0186 H       
  23 H23            1.1645     3.1706     0.0076 H       
  24 H24           -1.5410     2.2352     0.9049 H       
  25 H25            6.7065     1.3419    -1.7892 H       
  26 H26            7.7923    -0.0665    -1.8705 H       
  27 H27            6.5443    -0.9752    -3.7674 H       
  28 H28            7.0052     0.7051    -4.1317 H       
  29 H29            3.5328    -1.7819    -0.0220 H       
  30 H30            4.7528     0.7704     1.1281 H       
  31 H31            3.9912    -0.5154     2.0868 H       
  32 H32            6.6207    -0.4356     1.7043 H       
  33 H33            5.7394    -1.9712     1.7888 H       
  34 H34            6.0303    -2.4230    -0.4344 H       
  35 H35            7.4600    -1.3966    -0.1902 H       
@<TRIPOS>BOND
   1    1    2 ar
   2    1    6 ar
   3    1    7 1
   4    2    3 ar
   5    2   20 1
   6    3    4 ar
   7    3   21 1
   8    4    5 ar
   9    4   14 1
  10    5    6 ar
  11    5   22 1
  12    6   23 1
  13    7   24 1
  14    8    9 am
  15    8   13 1
  16    8   18 2
  17    8   19 2
  18    9   10 2
  19   10   11 1
  20   10   14 1
  21   11   12 1
  22   11   17 1
  23   12   13 1
  24   12   25 1
  25   12   26 1
  26   13   27 1
  27   13   28 1
  28   14   15 1
  29   14   29 1
  30   15   16 1
  31   15   30 1
  32   15   31 1
  33   16   17 1
  34   16   32 1
  35   16   33 1
  36   17   34 1
  37   17   35 1

#	End of record

