#	Name: ASD00310266
#	Creating user name:	WinNT
#	Creation time:	15. 06. 2019 18:34

#	Modifying user name:	WinNT
#	Modification time:	15. 06. 2019 18:34

#	Program:	/corina/corina34_cracker 3.40 0067  02.08.2006

@<TRIPOS>MOLECULE
ASD00310266
  22   23    0    0    0
SMALL
NO_CHARGES


@<TRIPOS>ATOM
   1 N1            -0.0163     1.3500     0.0095 N.pl3   
   2 C2             0.0021    -0.0041     0.0020 C.2     
   3 C3             1.2924    -0.4479    -0.0127 C.2     
   4 C4             2.1474     0.7539    -0.0144 C.ar    
   5 C5             3.5246     0.9609    -0.0264 C.ar    
   6 C6             4.0215     2.2465    -0.0243 C.ar    
   7 C7             3.1548     3.3322    -0.0097 C.ar    
   8 C8             1.7897     3.1401     0.0028 C.ar    
   9 C9             1.2701     1.8496    -0.0001 C.ar    
  10 C10            1.7408    -1.8451    -0.0240 C.2     
  11 O11            2.9292    -2.1021    -0.0364 O.2     
  12 O12            0.8349    -2.8439    -0.0208 O.3     
  13 Cl13           3.7966     4.9452    -0.0066 Cl      
  14 Br14           5.8905     2.5336    -0.0405 Br      
  15 C15            1.3503    -4.2013    -0.0326 C.3     
  16 H16           -0.8204     1.8924     0.0164 H       
  17 H17           -0.8728    -0.6373     0.0073 H       
  18 H18            4.1999     0.1181    -0.0370 H       
  19 H19            1.1242     3.9907     0.0144 H       
  20 H20            0.5186    -4.9058    -0.0285 H       
  21 H21            1.9514    -4.3539    -0.9290 H       
  22 H22            1.9679    -4.3631     0.8509 H       
@<TRIPOS>BOND
   1    1    2 1
   2    1    9 1
   3    1   16 1
   4    2    3 2
   5    2   17 1
   6    3    4 1
   7    3   10 1
   8    4    5 ar
   9    4    9 ar
  10    5    6 ar
  11    5   18 1
  12    6    7 ar
  13    6   14 1
  14    7    8 ar
  15    7   13 1
  16    8    9 ar
  17    8   19 1
  18   10   11 2
  19   10   12 1
  20   12   15 1
  21   15   20 1
  22   15   21 1
  23   15   22 1

#	End of record

