#	Name: ASD03731658
#	Creating user name:	WinNT
#	Creation time:	15. 06. 2019 20:46

#	Modifying user name:	WinNT
#	Modification time:	15. 06. 2019 20:46

#	Program:	/corina/corina34_cracker 3.40 0067  02.08.2006

@<TRIPOS>MOLECULE
ASD03731658
  33   34    0    0    0
SMALL
NO_CHARGES


@<TRIPOS>ATOM
   1 C1            -0.4031     1.1036    -1.9606 C.2     
   2 C2            -0.2819    -0.2744    -1.4502 C.ar    
   3 C3             0.9018    -0.9949    -1.6485 C.ar    
   4 C4             1.0105    -2.2846    -1.1683 C.ar    
   5 C5            -0.0518    -2.8666    -0.4898 C.ar    
   6 C6            -1.2312    -2.1533    -0.2909 C.ar    
   7 C7            -1.3468    -0.8633    -0.7616 C.ar    
   8 O8             0.5260     1.6158    -2.5548 O.2     
   9 N9            -1.5457     1.7935    -1.7734 N.am    
  10 O10            0.0593    -4.1350    -0.0193 O.3     
  11 C11            1.2620    -4.7568    -0.1387 C.ar    
  12 C12            2.2127    -4.6270     0.8631 C.ar    
  13 C13            3.4369    -5.2602     0.7409 C.ar    
  14 C14            3.7134    -6.0241    -0.3822 C.ar    
  15 C15            2.7640    -6.1537    -1.3837 C.ar    
  16 C16            1.5371    -5.5260    -1.2598 C.ar    
  17 F17            3.0345    -6.8977    -2.4785 F       
  18 F18            4.9089    -6.6421    -0.5010 F       
  19 F19            4.3631    -5.1335     1.7162 F       
  20 S20           -1.6818     3.3412    -2.3466 S.o2    
  21 O21           -2.9839     3.7486    -1.9496 O.2     
  22 O22           -0.5248     4.0012    -1.8516 O.2     
  23 C23           -1.5919     3.1655    -4.1499 C.3     
  24 F24           -2.2618    -2.7249     0.3697 F       
  25 F25            1.9357    -0.4294    -2.3090 F       
  26 H26            1.9231    -2.8417    -1.3209 H       
  27 H27           -2.2602    -0.3095    -0.6025 H       
  28 H28           -2.2882     1.3835    -1.3029 H       
  29 H29            1.9976    -4.0316     1.7380 H       
  30 H30            0.7955    -5.6313    -2.0379 H       
  31 H31           -2.4083     2.5307    -4.4942 H       
  32 H32           -1.6742     4.1477    -4.6152 H       
  33 H33           -0.6391     2.7124    -4.4237 H       
@<TRIPOS>BOND
   1    1    2 1
   2    1    8 2
   3    1    9 am
   4    2    3 ar
   5    2    7 ar
   6    3    4 ar
   7    3   25 1
   8    4    5 ar
   9    4   26 1
  10    5    6 ar
  11    5   10 1
  12    6    7 ar
  13    6   24 1
  14    7   27 1
  15    9   20 am
  16    9   28 1
  17   10   11 1
  18   11   12 ar
  19   11   16 ar
  20   12   13 ar
  21   12   29 1
  22   13   14 ar
  23   13   19 1
  24   14   15 ar
  25   14   18 1
  26   15   16 ar
  27   15   17 1
  28   16   30 1
  29   20   21 2
  30   20   22 2
  31   20   23 1
  32   23   31 1
  33   23   32 1
  34   23   33 1

#	End of record

