#	Name: ASD02508011
#	Creating user name:	WinNT
#	Creation time:	15. 06. 2019 20:23

#	Modifying user name:	WinNT
#	Modification time:	15. 06. 2019 20:23

#	Program:	/corina/corina34_cracker 3.40 0067  02.08.2006

@<TRIPOS>MOLECULE
ASD02508011
  39   42    0    0    0
SMALL
NO_CHARGES


@<TRIPOS>ATOM
   1 C1            -0.0169     1.3953     0.0097 C.2     
   2 C2             0.0021    -0.0041     0.0020 C.2     
   3 C3            -1.2248    -0.6943     0.0100 C.2     
   4 N4            -2.3813    -0.0049     0.0248 N.am    
   5 N5            -2.4038     1.3917     0.0320 N.2     
   6 C6            -1.3012     2.0881     0.0310 C.2     
   7 C7             1.3311     1.8355    -0.0008 C.2     
   8 C8             2.1402     0.7207    -0.0145 C.2     
   9 N9             1.3176    -0.4078    -0.0127 N.pl3   
  10 O10           -1.2402    -1.9153     0.0032 O.2     
  11 C11           -3.6492    -0.7388     0.0329 C.3     
  12 C12           -4.0703    -0.9981     1.4565 C.ar    
  13 C13           -4.8635    -0.0802     2.1204 C.ar    
  14 C14           -3.6686    -2.1550     2.0951 C.ar    
  15 C15           -4.0567    -2.3931     3.4058 C.ar    
  16 C16           -4.8475    -1.4681     4.0714 C.ar    
  17 C17           -5.2511    -0.3149     3.4264 C.ar    
  18 O18           -3.6630    -3.5309     4.0362 O.3     
  19 S19            2.3226     3.2907    -0.0029 S.3     
  20 C20            3.7963     2.3365    -0.0223 C.2     
  21 C21            3.5034     1.0318    -0.0254 C.2     
  22 S22            5.4274     3.0026    -0.0348 S.3     
  23 C23            5.1371     4.7932    -0.0219 C.3     
  24 C24            1.7807    -1.7976    -0.0242 C.3     
  25 H25           -1.3383     3.1674     0.0367 H       
  26 H26           -4.4143    -0.1478    -0.4704 H       
  27 H27           -3.5228    -1.6883    -0.4872 H       
  28 H28           -5.1802     0.8218     1.6178 H       
  29 H29           -3.0531    -2.8738     1.5746 H       
  30 H30           -5.1512    -1.6514     5.0915 H       
  31 H31           -5.8669     0.4056     3.9442 H       
  32 H32           -2.8232    -3.4485     4.5084 H       
  33 H33            4.2683     0.2694    -0.0361 H       
  34 H34            4.5629     5.0745    -0.9046 H       
  35 H35            4.5806     5.0646     0.8752 H       
  36 H36            6.0933     5.3164    -0.0285 H       
  37 H37            1.9054    -2.1475     1.0006 H       
  38 H38            1.0462    -2.4211    -0.5341 H       
  39 H39            2.7348    -1.8584    -0.5475 H       
@<TRIPOS>BOND
   1    1    2 2
   2    1    7 1
   3    1    6 1
   4    2    3 1
   5    2    9 1
   6    3    4 am
   7    3   10 2
   8    4    5 1
   9    4   11 1
  10    5    6 2
  11    6   25 1
  12    7    8 2
  13    7   19 1
  14    8    9 1
  15    8   21 1
  16    9   24 1
  17   11   12 1
  18   11   26 1
  19   11   27 1
  20   12   13 ar
  21   12   14 ar
  22   13   17 ar
  23   13   28 1
  24   14   15 ar
  25   14   29 1
  26   15   16 ar
  27   15   18 1
  28   16   17 ar
  29   16   30 1
  30   17   31 1
  31   18   32 1
  32   19   20 1
  33   20   21 2
  34   20   22 1
  35   21   33 1
  36   22   23 1
  37   23   34 1
  38   23   35 1
  39   23   36 1
  40   24   37 1
  41   24   38 1
  42   24   39 1

#	End of record

