#	Name: ASD01410858
#	Creating user name:	WinNT
#	Creation time:	15. 06. 2019 19:18

#	Modifying user name:	WinNT
#	Modification time:	15. 06. 2019 19:18

#	Program:	/corina/corina34_cracker 3.40 0067  02.08.2006

@<TRIPOS>MOLECULE
ASD01410858
 130  137    0    0    0
SMALL
NO_CHARGES


@<TRIPOS>ATOM
   1 C1             1.9027     0.8879     2.9228 C.3     
   2 C2             1.1430    -0.4298     2.6441 C.3     
   3 N3             1.1458    -1.1386     3.9404 N.am    
   4 C4             1.2366    -0.1420     5.0145 C.3     
   5 C5             1.3874     1.2413     4.3447 C.3     
   6 O6             3.3158     0.6749     2.9270 O.3     
   7 C7            -0.0173    -0.1730     5.8498 C.2     
   8 O8            -0.9071    -0.9515     5.5793 O.2     
   9 N9            -0.1500     0.6644     6.8974 N.am    
  10 C10            1.9357    -1.2829     1.6475 C.3     
  11 C11            1.2370    -3.3890     2.8956 C.3     
  12 C12            1.1114    -2.4745     4.0814 C.2     
  13 O13            0.9768    -2.9517     5.1882 O.2     
  14 C14           -0.0018    -4.2838     2.8197 C.3     
  15 C15           -1.1402    -3.5219     2.1383 C.3     
  16 C16            0.3259    -5.5410     2.0117 C.3     
  17 C17           -1.4171     0.7257     7.6303 C.3     
  18 C18           -2.6232     1.1094     6.8122 C.2     
  19 N19           -2.4745     1.4776     5.5243 N.am    
  20 O20           -3.7276     1.0867     7.3128 O.2     
  21 S21           -3.7823     2.0098     4.6590 S.o2    
  22 C22           -4.2707     3.5522     5.4796 C.3     
  23 C23           -1.6246    -0.2764     8.7676 C.3     
  24 C24           -1.3700     1.1994     9.0843 C.3     
  25 C25           -5.5417     4.2445     4.9836 C.3     
  26 C26           -5.5393     3.5265     6.3346 C.3     
  27 O27           -3.2608     2.2772     3.3645 O.2     
  28 O28           -4.7672     1.0052     4.8589 O.2     
  29 C29           -3.0195    -0.8040     8.9844 C.2     
  30 C30           -3.2553    -2.0893     8.8925 C.2     
  31 C31            4.0952     1.7072     2.5202 C.ar    
  32 C32            5.5060     1.6097     2.5498 C.ar    
  33 C33            3.5346     2.8820     2.0595 C.ar    
  34 C34            4.3624     3.9280     1.6467 C.ar    
  35 N35            5.6751     3.8263     1.6836 N.ar    
  36 C36            6.2796     2.7127     2.1149 C.ar    
  37 N37            3.7839     5.1116     1.1826 N.pl3   
  38 C38            4.4515     6.2106     0.7434 C.2     
  39 C39            7.6813     2.6208     2.1484 C.ar    
  40 C40            8.2768     1.4630     2.5973 C.ar    
  41 C41            7.5026     0.3789     3.0198 C.ar    
  42 C42            6.1433     0.4445     3.0009 C.ar    
  43 Cl43           8.6566     3.9587     1.6263 Cl      
  44 O44            9.6322     1.3736     2.6294 O.3     
  45 C45           10.1904     0.1471     3.1051 C.3     
  46 N46            2.4118     5.3754     1.0811 N.2     
  47 C47            2.2610     6.5845     0.6055 C.2     
  48 C48            3.5297     7.1329     0.3841 C.2     
  49 C49            0.9455     7.2691     0.3375 C.3     
  50 C50            0.5633     8.1295     1.5435 C.3     
  51 C51            1.0757     8.1569    -0.9017 C.3     
  52 C52           11.7175     0.2336     3.0684 C.3     
  53 N53           12.1726     1.2607     4.0150 N.3     
  54 C54           13.6322     1.2115     4.1842 C.3     
  55 C55           -0.4298    -4.6832     4.2333 C.3     
  56 C56           14.0690     2.3336     5.1297 C.3     
  57 O57           13.3750     2.1998     6.3730 O.3     
  58 C58           11.9512     2.2439     6.2453 C.3     
  59 C59           11.4930     1.1209     5.3111 C.3     
  60 N60            1.3572    -2.6326     1.6512 N.am    
  61 O61            0.9185    -2.4432    -0.6326 O.3     
  62 C62            0.4488    -3.0970    -1.8410 C.3     
  63 C63           -0.9930    -3.5674    -1.6389 C.3     
  64 C64            0.5045    -2.1106    -3.0092 C.3     
  65 C65            1.3401    -4.3021    -2.1481 C.3     
  66 C66            0.9326    -3.1793     0.4947 C.2     
  67 O67            0.5627    -4.3364     0.4694 O.2     
  68 H68            1.6273     1.6587     2.2030 H       
  69 H69            0.1274    -0.2369     2.2983 H       
  70 H70            2.1058    -0.3482     5.6390 H       
  71 H71            2.1169     1.8504     4.8786 H       
  72 H72            0.4250     1.7501     4.2904 H       
  73 H73            0.5934     1.2266     7.1662 H       
  74 H74            1.8592    -0.8513     0.6496 H       
  75 H75            2.9815    -1.3289     1.9512 H       
  76 H76            2.1214    -4.0141     3.0192 H       
  77 H77           -0.8353    -3.2374     1.1312 H       
  78 H78           -2.0228    -4.1593     2.0842 H       
  79 H79           -1.3737    -2.6262     2.7139 H       
  80 H80            1.4012    -5.5935     1.8414 H       
  81 H81            0.0021    -6.4229     2.5645 H       
  82 H82           -0.1922    -5.5024     1.0535 H       
  83 H83           -1.6015     1.4309     5.1042 H       
  84 H84           -3.4502     4.1865     5.8149 H       
  85 H85           -0.8183    -0.9814     8.9706 H       
  86 H86           -0.3963     1.4651     9.4959 H       
  87 H87           -2.2115     1.7882     9.4495 H       
  88 H88           -5.5575     5.3344     4.9928 H       
  89 H89           -6.0845     3.7732     4.1641 H       
  90 H90           -6.0804     2.5828     6.4040 H       
  91 H91           -5.5534     4.1440     7.2327 H       
  92 H92           -3.8247    -0.1223     9.2155 H       
  93 H93           -2.4501    -2.7709     8.6614 H       
  94 H94           -4.2550    -2.4673     9.0479 H       
  95 H95            2.4610     2.9912     2.0184 H       
  96 H96            5.5240     6.3268     0.6912 H       
  97 H97            7.9887    -0.5205     3.3681 H       
  98 H98            5.5563    -0.4002     3.3299 H       
  99 H99            9.8609    -0.0290     4.1291 H       
 100 H100           9.8576    -0.6740     2.4701 H       
 101 H101           3.7363     8.1192    -0.0046 H       
 102 H102           0.1735     6.5186     0.1673 H       
 103 H103           1.3353     8.8799     1.7137 H       
 104 H104          -0.3882     8.6246     1.3497 H       
 105 H105           0.4705     7.4970     2.4264 H       
 106 H106           1.3480     7.5439    -1.7609 H       
 107 H107           0.1242     8.6520    -1.0955 H       
 108 H108           1.8477     8.9073    -0.7315 H       
 109 H109          12.1428    -0.7307     3.3464 H       
 110 H110          12.0424     0.4975     2.0620 H       
 111 H111          13.9174     0.2480     4.6066 H       
 112 H112          14.1154     1.3426     3.2160 H       
 113 H113          -0.6632    -3.7875     4.8089 H       
 114 H114          -1.3123    -5.3206     4.1792 H       
 115 H115           0.3813    -5.2260     4.7187 H       
 116 H116          15.1429     2.2660     5.3032 H       
 117 H117          13.8320     3.2991     4.6827 H       
 118 H118          11.4936     2.1113     7.2256 H       
 119 H119          11.6527     3.2068     5.8307 H       
 120 H120          10.4147     1.1858     5.1655 H       
 121 H121          11.7440     0.1559     5.7515 H       
 122 H122          -1.6280    -2.7089    -1.4201 H       
 123 H123          -1.3455    -4.0582    -2.5461 H       
 124 H124          -1.0327    -4.2701    -0.8067 H       
 125 H125           1.5317    -1.7755    -3.1531 H       
 126 H126           0.1520    -2.6014    -3.9163 H       
 127 H127          -0.1304    -1.2521    -2.7904 H       
 128 H128           1.3004    -5.0049    -1.3158 H       
 129 H129           0.9875    -4.7930    -3.0552 H       
 130 H130           2.3673    -3.9670    -2.2920 H       
@<TRIPOS>BOND
   1    1    2 1
   2    1    6 1
   3    1    5 1
   4    1   68 1
   5    2    3 1
   6    2   10 1
   7    2   69 1
   8    3    4 1
   9    3   12 am
  10    4    5 1
  11    4    7 1
  12    4   70 1
  13    5   71 1
  14    5   72 1
  15    6   31 1
  16    7    8 2
  17    7    9 am
  18    9   17 1
  19    9   73 1
  20   10   60 1
  21   10   74 1
  22   10   75 1
  23   11   12 1
  24   11   14 1
  25   11   60 1
  26   11   76 1
  27   12   13 2
  28   14   15 1
  29   14   16 1
  30   14   55 1
  31   15   77 1
  32   15   78 1
  33   15   79 1
  34   16   80 1
  35   16   81 1
  36   16   82 1
  37   17   18 1
  38   17   23 1
  39   17   24 1
  40   18   19 am
  41   18   20 2
  42   19   21 am
  43   19   83 1
  44   21   22 1
  45   21   27 2
  46   21   28 2
  47   22   25 1
  48   22   26 1
  49   22   84 1
  50   23   24 1
  51   23   29 1
  52   23   85 1
  53   24   86 1
  54   24   87 1
  55   25   26 1
  56   25   88 1
  57   25   89 1
  58   26   90 1
  59   26   91 1
  60   29   30 2
  61   29   92 1
  62   30   93 1
  63   30   94 1
  64   31   32 ar
  65   31   33 ar
  66   32   36 ar
  67   32   42 ar
  68   33   34 ar
  69   33   95 1
  70   34   35 ar
  71   34   37 1
  72   35   36 ar
  73   36   39 ar
  74   37   46 1
  75   37   38 1
  76   38   48 2
  77   38   96 1
  78   39   40 ar
  79   39   43 1
  80   40   41 ar
  81   40   44 1
  82   41   42 ar
  83   41   97 1
  84   42   98 1
  85   44   45 1
  86   45   52 1
  87   45   99 1
  88   45  100 1
  89   46   47 2
  90   47   48 1
  91   47   49 1
  92   48  101 1
  93   49   50 1
  94   49   51 1
  95   49  102 1
  96   50  103 1
  97   50  104 1
  98   50  105 1
  99   51  106 1
 100   51  107 1
 101   51  108 1
 102   52   53 1
 103   52  109 1
 104   52  110 1
 105   53   54 1
 106   53   59 1
 107   54   56 1
 108   54  111 1
 109   54  112 1
 110   55  113 1
 111   55  114 1
 112   55  115 1
 113   56   57 1
 114   56  116 1
 115   56  117 1
 116   57   58 1
 117   58   59 1
 118   58  118 1
 119   58  119 1
 120   59  120 1
 121   59  121 1
 122   60   66 am
 123   61   62 1
 124   61   66 1
 125   62   63 1
 126   62   64 1
 127   62   65 1
 128   63  122 1
 129   63  123 1
 130   63  124 1
 131   64  125 1
 132   64  126 1
 133   64  127 1
 134   65  128 1
 135   65  129 1
 136   65  130 1
 137   66   67 2

#	End of record

