#	Name: ASD01948026
#	Creating user name:	WinNT
#	Creation time:	15. 06. 2019 20:13

#	Modifying user name:	WinNT
#	Modification time:	15. 06. 2019 20:13

#	Program:	/corina/corina34_cracker 3.40 0067  02.08.2006

@<TRIPOS>MOLECULE
ASD01948026
  58   62    0    0    0
SMALL
NO_CHARGES


@<TRIPOS>ATOM
   1 C1            -1.4292     3.4080    -3.0436 C.3     
   2 C2            -2.8333     2.9385    -2.6576 C.3     
   3 C3            -2.4006     4.3769    -2.3664 C.3     
   4 S4            -0.0384     2.7898    -2.0565 S.o2    
   5 O5            -0.3052     2.9418    -0.6691 O.2     
   6 O6             0.4360     1.5571    -2.5806 O.2     
   7 N7             1.1890     3.8603    -2.3561 N.am    
   8 C8             3.2028     4.5306    -1.1898 C.2     
   9 C9             1.8202     4.5271    -1.2854 C.2     
  10 C10            1.0487     5.1871    -0.3178 C.2     
  11 C11            1.6920     5.8380     0.7291 C.2     
  12 C12            3.0810     5.8175     0.7891 C.2     
  13 N13            3.8059     5.1768    -0.1519 N.am    
  14 N14            4.1200     3.9360    -2.0373 N.pl3   
  15 C15            5.4759     4.2006    -1.5454 C.3     
  16 C16            5.2669     5.0368    -0.2728 C.3     
  17 O17            3.6533     6.3876     1.7066 O.2     
  18 C18            0.8936     6.5572     1.7855 C.3     
  19 N19           -0.3359     5.1908    -0.4042 N.pl3   
  20 C20           -1.1054     4.7469     0.6767 C.ar    
  21 C21           -2.3943     5.2366     0.8626 C.ar    
  22 C22           -3.1515     4.7950     1.9316 C.ar    
  23 C23           -2.6281     3.8675     2.8151 C.ar    
  24 C24           -1.3472     3.3796     2.6320 C.ar    
  25 C25           -0.5868     3.8127     1.5626 C.ar    
  26 I26           -3.7787     3.2014     4.4343 I       
  27 F27           -2.9049     6.1425     0.0002 F       
  28 C28            3.7891     3.1633    -3.2371 C.3     
  29 C29            4.0853     3.9878    -4.4633 C.ar    
  30 C30            5.2881     3.8324    -5.1267 C.ar    
  31 C31            5.5598     4.5887    -6.2514 C.ar    
  32 C32            4.6286     5.5002    -6.7129 C.ar    
  33 C33            3.4255     5.6549    -6.0501 C.ar    
  34 C34            3.1520     4.8955    -4.9279 C.ar    
  35 H35           -1.2229     3.5605    -4.1030 H       
  36 H36           -3.5508     2.7821    -3.4631 H       
  37 H37           -2.9213     2.2581    -1.8106 H       
  38 H38           -2.2040     4.6428    -1.3277 H       
  39 H39           -2.8334     5.1667    -2.9802 H       
  40 H40            1.4739     4.0287    -3.2679 H       
  41 H41            5.9822     3.2660    -1.3038 H       
  42 H42            6.0460     4.7631    -2.2848 H       
  43 H43            5.7346     6.0157    -0.3785 H       
  44 H44            5.6711     4.5136     0.5937 H       
  45 H45            0.7399     5.8957     2.6381 H       
  46 H46            1.4357     7.4460     2.1084 H       
  47 H47           -0.0724     6.8502     1.3743 H       
  48 H48           -0.7705     5.5011    -1.2139 H       
  49 H49           -4.1520     5.1745     2.0775 H       
  50 H50           -0.9419     2.6560     3.3238 H       
  51 H51            0.4118     3.4274     1.4184 H       
  52 H52            4.3870     2.2521    -3.2588 H       
  53 H53            2.7307     2.9031    -3.2212 H       
  54 H54            6.0156     3.1203    -4.7661 H       
  55 H55            6.4998     4.4678    -6.7693 H       
  56 H56            4.8412     6.0916    -7.5912 H       
  57 H57            2.6981     6.3673    -6.4105 H       
  58 H58            2.2105     5.0137    -4.4121 H       
@<TRIPOS>BOND
   1    1    2 1
   2    1    3 1
   3    1    4 1
   4    1   35 1
   5    2    3 1
   6    2   36 1
   7    2   37 1
   8    3   38 1
   9    3   39 1
  10    4    5 2
  11    4    6 2
  12    4    7 am
  13    7    9 1
  14    7   40 1
  15    8    9 2
  16    8   13 1
  17    8   14 1
  18    9   10 1
  19   10   11 2
  20   10   19 1
  21   11   12 1
  22   11   18 1
  23   12   13 am
  24   12   17 2
  25   13   16 1
  26   14   15 1
  27   14   28 1
  28   15   16 1
  29   15   41 1
  30   15   42 1
  31   16   43 1
  32   16   44 1
  33   18   45 1
  34   18   46 1
  35   18   47 1
  36   19   20 1
  37   19   48 1
  38   20   21 ar
  39   20   25 ar
  40   21   22 ar
  41   21   27 1
  42   22   23 ar
  43   22   49 1
  44   23   24 ar
  45   23   26 1
  46   24   25 ar
  47   24   50 1
  48   25   51 1
  49   28   29 1
  50   28   52 1
  51   28   53 1
  52   29   30 ar
  53   29   34 ar
  54   30   31 ar
  55   30   54 1
  56   31   32 ar
  57   31   55 1
  58   32   33 ar
  59   32   56 1
  60   33   34 ar
  61   33   57 1
  62   34   58 1

#	End of record

