#	Name: ASD01900648
#	Creating user name:	WinNT
#	Creation time:	15. 06. 2019 19:52

#	Modifying user name:	WinNT
#	Modification time:	15. 06. 2019 19:52

#	Program:	/corina/corina34_cracker 3.40 0067  02.08.2006

@<TRIPOS>MOLECULE
ASD01900648
  48   52    0    0    0
SMALL
NO_CHARGES


@<TRIPOS>ATOM
   1 C1            -0.0186     1.4182     0.1363 C.ar    
   2 C2            -0.0086     0.0184     0.1254 C.ar    
   3 C3             1.2004    -0.6775     0.0650 C.ar    
   4 C4             2.3944     0.0227     0.0149 C.ar    
   5 C5             2.3659     1.4260     0.0306 C.ar    
   6 O6             3.5722    -0.6342    -0.0557 O.3     
   7 C7             4.7413    -0.0180     0.1908 C.2     
   8 C8             4.8673     1.3293     0.2214 C.2     
   9 C9             3.6621     2.1483    -0.0104 C.2     
  10 C10            5.9384    -0.8460     0.4390 C.ar    
  11 N11            7.1076    -0.2480     0.6854 N.ar    
  12 C12            8.2093    -0.9179     0.9145 C.ar    
  13 C13            8.1979    -2.3238     0.9082 C.ar    
  14 C14            6.9748    -2.9983     0.6504 C.ar    
  15 C15            5.8245    -2.2273     0.4172 C.ar    
  16 C16            9.3582    -3.0749     1.1484 C.ar    
  17 C17            9.2941    -4.4356     1.1307 C.ar    
  18 C18            8.0938    -5.0967     0.8773 C.ar    
  19 C19            6.9466    -4.4013     0.6402 C.ar    
  20 C20            1.1580     2.1127     0.0893 C.ar    
  21 C21           -1.2443    -0.7033     0.1770 C.1     
  22 C22           -2.2574    -1.2950     0.2194 C.1     
  23 C23           -3.4932    -2.0167     0.2710 C.ar    
  24 C24           -3.4902    -3.4129     0.2605 C.ar    
  25 C25           -4.7069    -1.3261     0.3379 C.ar    
  26 C26           -5.8955    -2.0243     0.3874 C.ar    
  27 C27           -5.8923    -3.4069     0.3717 C.ar    
  28 C28           -4.6910    -4.1039     0.3107 C.ar    
  29 N29           -4.6940    -5.5008     0.2952 N.pl3   
  30 N30            3.7318     3.4376    -0.2395 N.2     
  31 O31            2.5671     4.1561    -0.6031 O.3     
  32 H32           -0.9575     1.9504     0.1773 H       
  33 H33            1.2045    -1.7575     0.0577 H       
  34 H34            5.8244     1.7925     0.4107 H       
  35 H35            9.1303    -0.3883     1.1088 H       
  36 H36            4.8742    -2.6999     0.2172 H       
  37 H37           10.2964    -2.5776     1.3457 H       
  38 H38           10.1886    -5.0117     1.3159 H       
  39 H39            8.0727    -6.1764     0.8689 H       
  40 H40            6.0227    -4.9257     0.4454 H       
  41 H41            1.1494     3.1926     0.0970 H       
  42 H42           -2.5559    -3.9526     0.2131 H       
  43 H43           -4.7138    -0.2462     0.3511 H       
  44 H44           -6.8321    -1.4890     0.4391 H       
  45 H45           -6.8264    -3.9475     0.4115 H       
  46 H46           -5.5343    -5.9843     0.3269 H       
  47 H47           -3.8559    -5.9872     0.2526 H       
  48 H48            2.7173     5.0998    -0.7513 H       
@<TRIPOS>BOND
   1    1    2 ar
   2    1   20 ar
   3    1   32 1
   4    2    3 ar
   5    2   21 1
   6    3    4 ar
   7    3   33 1
   8    4    5 ar
   9    4    6 1
  10    5   20 ar
  11    5    9 1
  12    6    7 1
  13    7    8 2
  14    7   10 1
  15    8    9 1
  16    8   34 1
  17    9   30 2
  18   10   11 ar
  19   10   15 ar
  20   11   12 ar
  21   12   13 ar
  22   12   35 1
  23   13   14 ar
  24   13   16 ar
  25   14   15 ar
  26   14   19 ar
  27   15   36 1
  28   16   17 ar
  29   16   37 1
  30   17   18 ar
  31   17   38 1
  32   18   19 ar
  33   18   39 1
  34   19   40 1
  35   20   41 1
  36   21   22 3
  37   22   23 1
  38   23   24 ar
  39   23   25 ar
  40   24   28 ar
  41   24   42 1
  42   25   26 ar
  43   25   43 1
  44   26   27 ar
  45   26   44 1
  46   27   28 ar
  47   27   45 1
  48   28   29 1
  49   29   46 1
  50   29   47 1
  51   30   31 1
  52   31   48 1

#	End of record

