#	Name: ASD01914314
#	Creating user name:	WinNT
#	Creation time:	15. 06. 2019 20:03

#	Modifying user name:	WinNT
#	Modification time:	15. 06. 2019 20:03

#	Program:	/corina/corina34_cracker 3.40 0067  02.08.2006

@<TRIPOS>MOLECULE
ASD01914314
  38   40    0    0    0
SMALL
NO_CHARGES


@<TRIPOS>ATOM
   1 N1            -0.0165     1.3630     0.0095 N.pl3   
   2 C2             0.0021    -0.0041     0.0020 C.2     
   3 C3             1.2670     1.7850    -0.0005 C.2     
   4 N4             2.0550     0.7467    -0.0136 N.2     
   5 C5             1.3085    -0.3764    -0.0125 C.2     
   6 C6             1.7152     3.2238     0.0022 C.3     
   7 C7             1.7334     3.7550    -1.4325 C.3     
   8 C8             2.1884     5.2158    -1.4298 C.3     
   9 C9             1.2197     6.0501    -0.5893 C.3     
  10 C10            1.2015     5.5190     0.8454 C.3     
  11 C11            0.7465     4.0582     0.8427 C.3     
  12 C12            1.8218    -1.7686    -0.0244 C.ar    
  13 C13            0.9355    -2.8394    -0.1263 C.ar    
  14 C14            3.1916    -2.0090     0.0605 C.ar    
  15 C15            3.6646    -3.3054     0.0491 C.ar    
  16 C16            2.7797    -4.3668    -0.0466 C.ar    
  17 C17            1.4172    -4.1322    -0.1370 C.ar    
  18 C18            5.1459    -3.5667     0.1404 C.3     
  19 F19            3.2471    -5.6344    -0.0579 F       
  20 H20           -0.8060     1.9264     0.0165 H       
  21 H21           -0.8555    -0.6606     0.0067 H       
  22 H22            2.7165     3.2917     0.4275 H       
  23 H23            2.4235     3.1606    -2.0313 H       
  24 H24            0.7321     3.6872    -1.8578 H       
  25 H25            3.1897     5.2836    -1.0045 H       
  26 H26            2.2014     5.5942    -2.4519 H       
  27 H27            1.5439     7.0908    -0.5873 H       
  28 H28            0.2184     5.9823    -1.0146 H       
  29 H29            2.2028     5.5868     1.2707 H       
  30 H30            0.5114     6.1134     1.4442 H       
  31 H31           -0.2548     3.9904     0.4174 H       
  32 H32            0.7335     3.6798     1.8648 H       
  33 H33           -0.1267    -2.6574    -0.1965 H       
  34 H34            3.8822    -1.1820     0.1348 H       
  35 H35            0.7308    -4.9627    -0.2111 H       
  36 H36            5.4339    -3.6640     1.1872 H       
  37 H37            5.3856    -4.4886    -0.3895 H       
  38 H38            5.6898    -2.7366    -0.3104 H       
@<TRIPOS>BOND
   1    1    2 1
   2    1    3 1
   3    1   20 1
   4    2    5 2
   5    2   21 1
   6    3    4 2
   7    3    6 1
   8    4    5 1
   9    5   12 1
  10    6    7 1
  11    6   11 1
  12    6   22 1
  13    7    8 1
  14    7   23 1
  15    7   24 1
  16    8    9 1
  17    8   25 1
  18    8   26 1
  19    9   10 1
  20    9   27 1
  21    9   28 1
  22   10   11 1
  23   10   29 1
  24   10   30 1
  25   11   31 1
  26   11   32 1
  27   12   13 ar
  28   12   14 ar
  29   13   17 ar
  30   13   33 1
  31   14   15 ar
  32   14   34 1
  33   15   16 ar
  34   15   18 1
  35   16   17 ar
  36   16   19 1
  37   17   35 1
  38   18   36 1
  39   18   37 1
  40   18   38 1

#	End of record

