#	Name: ASD01141070
#	Creating user name:	WinNT
#	Creation time:	15. 06. 2019 19:01

#	Modifying user name:	WinNT
#	Modification time:	15. 06. 2019 19:01

#	Program:	/corina/corina34_cracker 3.40 0067  02.08.2006

@<TRIPOS>MOLECULE
ASD01141070
  41   43    0    0    0
SMALL
NO_CHARGES


@<TRIPOS>ATOM
   1 C1             0.3304     0.9362    -0.3142 C.2     
   2 C2            -0.2193    -0.3089     0.2323 C.2     
   3 C3             0.6181     1.0451    -1.7602 C.ar    
   4 O4             0.5451     1.8813     0.4219 O.2     
   5 C5             0.5844    -1.5380     0.2113 C.2     
   6 C6            -1.4935    -0.3255     0.7670 C.2     
   7 C7             0.2580     0.0113    -2.6269 C.ar    
   8 C8             1.2463     2.1856    -2.2668 C.ar    
   9 O9             0.0827    -2.5985     0.5341 O.2     
  10 N10            1.8775    -1.4913    -0.1654 N.am    
  11 N11           -1.9246    -1.4067     1.4501 N.pl3   
  12 C12            0.5288     0.1194    -3.9747 C.ar    
  13 C13            1.5114     2.2802    -3.6192 C.ar    
  14 Cl14           1.6921     3.4803    -1.1998 Cl      
  15 C15           -3.2485    -1.4705     1.8947 C.ar    
  16 C16            1.1562     1.2495    -4.4700 C.ar    
  17 C17           -4.1229    -0.4242     1.6292 C.ar    
  18 C18           -3.6936    -2.5827     2.5980 C.ar    
  19 C19           -5.4302    -0.4901     2.0692 C.ar    
  20 C20           -5.0020    -2.6432     3.0355 C.ar    
  21 C21           -5.8695    -1.5970     2.7741 C.ar    
  22 Cl22          -7.5134    -1.6762     3.3262 Cl      
  23 H23            2.2970    -0.6374    -0.3548 H       
  24 H24           -1.3159    -2.1396     1.6326 H       
  25 C25            2.6497    -2.7301    -0.2890 C.3     
  26 C26            3.8852    -2.7054    -1.1912 C.3     
  27 C27            4.0490    -2.7550     0.3292 C.3     
  28 H28           -2.1443     0.5267     0.6382 H       
  29 H29           -0.2313    -0.8715    -2.2424 H       
  30 H30            0.2543    -0.6817    -4.6450 H       
  31 H31            1.9966     3.1611    -4.0130 H       
  32 H32            1.3657     1.3284    -5.5265 H       
  33 H33           -3.7805     0.4400     1.0794 H       
  34 H34           -3.0171    -3.3995     2.8020 H       
  35 H35           -6.1103     0.3232     1.8633 H       
  36 H36           -5.3486    -3.5076     3.5823 H       
  37 H37            2.0684    -3.6516    -0.2568 H       
  38 H38            4.1169    -3.6108    -1.7521 H       
  39 H39            4.1235    -1.7675    -1.6928 H       
  40 H40            4.3951    -1.8496     0.8279 H       
  41 H41            4.3886    -3.6930     0.7685 H       
@<TRIPOS>BOND
   1    1    2 1
   2    1    3 1
   3    1    4 2
   4    2    5 1
   5    2    6 2
   6    3    7 ar
   7    3    8 ar
   8    5   10 am
   9    5    9 2
  10    6   11 1
  11    6   28 1
  12    7   12 ar
  13    7   29 1
  14    8   13 ar
  15    8   14 1
  16   10   23 1
  17   10   25 1
  18   11   24 1
  19   11   15 1
  20   12   16 ar
  21   12   30 1
  22   13   16 ar
  23   13   31 1
  24   15   18 ar
  25   15   17 ar
  26   16   32 1
  27   17   19 ar
  28   17   33 1
  29   18   20 ar
  30   18   34 1
  31   19   21 ar
  32   19   35 1
  33   20   21 ar
  34   20   36 1
  35   21   22 1
  36   25   26 1
  37   25   27 1
  38   25   37 1
  39   26   27 1
  40   26   38 1
  41   26   39 1
  42   27   40 1
  43   27   41 1

#	End of record

