#	Name: ASD01720087
#	Creating user name:	WinNT
#	Creation time:	15. 06. 2019 19:23

#	Modifying user name:	WinNT
#	Modification time:	15. 06. 2019 19:23

#	Program:	/corina/corina34_cracker 3.40 0067  02.08.2006

@<TRIPOS>MOLECULE
ASD01720087
  78   83    0    0    0
SMALL
NO_CHARGES


@<TRIPOS>ATOM
   1 C1             0.2338     1.3747     0.3335 C.ar    
   2 C2             0.3315     0.0127     0.4271 C.ar    
   3 C3             1.5895    -0.5874     0.4302 C.ar    
   4 N4             2.6941     0.1407     0.3444 N.ar    
   5 C5             2.6487     1.4586     0.2524 C.ar    
   6 C6             1.4143     2.1269     0.2432 C.ar    
   7 N7             1.6871    -1.9650     0.5248 N.3     
   8 O8             3.7992     2.1677     0.1670 O.3     
   9 C9             5.0208     1.4265     0.1822 C.3     
  10 C10            6.2039     2.3910     0.0776 C.3     
  11 C11            7.5119     1.5974     0.0939 C.3     
  12 C12            8.6883     2.5483    -0.1355 C.3     
  13 C13            7.6720     0.9058     1.4493 C.3     
  14 C14            1.3596     3.5945     0.1408 C.2     
  15 O15            2.3891     4.2375     0.0630 O.2     
  16 C16            3.1074    -2.4003     0.5112 C.3     
  17 C17            3.0560    -3.8823     0.0819 C.3     
  18 C18            1.7301    -4.0295    -0.6927 C.3     
  19 C19            1.0920    -2.6240    -0.6662 C.3     
  20 C20            3.0682    -4.2007    -1.4146 C.3     
  21 C21            3.4626    -5.5961    -1.8246 C.2     
  22 O22            3.7536    -6.4134    -0.9836 O.2     
  23 O23            3.4907    -5.9311    -3.1241 O.3     
  24 C24           -1.1914     6.1919     0.6480 C.3     
  25 C25           -1.2922     5.7093     2.0964 C.3     
  26 C26           -2.5979     6.2152     2.7129 C.3     
  27 C27           -1.2108     7.7215     0.6176 C.3     
  28 C28           -2.5165     8.2274     1.2340 C.3     
  29 C29           -2.6172     7.7448     2.6824 C.3     
  30 C30           -0.0251     8.2626     1.4191 C.3     
  31 C31           -0.1065     6.2504     2.8979 C.3     
  32 C32           -1.4316     8.2859     3.4839 C.3     
  33 C33           -0.1259     7.7799     2.8675 C.3     
  34 O34           -3.8368     8.2173     3.2582 O.3     
  35 N35            0.1687     4.2256     0.1334 N.am    
  36 C36            0.1143     5.6860     0.0315 C.3     
  37 C37            0.1760     6.0972    -1.4409 C.3     
  38 H38           -0.7313     1.8594     0.3249 H       
  39 H39           -0.5600    -0.5928     0.4983 H       
  40 H40            5.0924     0.8631     1.1125 H       
  41 H41            5.0382     0.7373    -0.6622 H       
  42 H42            6.1323     2.9544    -0.8527 H       
  43 H43            6.1865     3.0802     0.9219 H       
  44 H44            7.4916     0.8472    -0.6966 H       
  45 H45            8.7086     3.2985     0.6550 H       
  46 H46            9.6201     1.9830    -0.1240 H       
  47 H47            8.5742     3.0410    -1.1011 H       
  48 H48            7.6923     1.6560     2.2398 H       
  49 H49            6.8339     0.2283     1.6127 H       
  50 H50            8.6038     0.3404     1.4609 H       
  51 H51            3.6775    -1.8151    -0.2103 H       
  52 H52            3.5430    -2.3076     1.5061 H       
  53 H53            3.3847    -4.6292     0.8046 H       
  54 H54            1.0718    -4.8859    -0.5466 H       
  55 H55            0.0100    -2.6997    -0.5579 H       
  56 H56            1.3466    -2.0738    -1.5720 H       
  57 H57            3.3773    -3.4068    -2.0945 H       
  58 H58            3.7499    -6.8378    -3.3383 H       
  59 H59           -2.0361     5.8065     0.0770 H       
  60 H60           -1.2784     4.6196     2.1180 H       
  61 H61           -3.4426     5.8298     2.1419 H       
  62 H62           -2.6697     5.8714     3.7447 H       
  63 H63           -1.1390     8.0653    -0.4143 H       
  64 H64           -2.5302     9.3171     1.2124 H       
  65 H65           -3.3612     7.8419     0.6630 H       
  66 H66            0.9051     7.9021     0.9799 H       
  67 H67           -0.0389     9.3523     1.3974 H       
  68 H68           -0.1783     5.9065     3.9297 H       
  69 H69            0.8237     5.8900     2.4587 H       
  70 H70           -1.4453     9.3756     3.4623 H       
  71 H71           -1.5034     7.9420     4.5158 H       
  72 H72            0.7188     8.1654     3.4384 H       
  73 H73           -3.9676     7.9485     4.1779 H       
  74 H74           -0.6523     3.7128     0.1955 H       
  75 H75            0.9600     6.1193     0.5655 H       
  76 H76            0.0694     7.1790    -1.5208 H       
  77 H77            1.1344     5.7944    -1.8628 H       
  78 H78           -0.6317     5.6111    -1.9881 H       
@<TRIPOS>BOND
   1    1    2 ar
   2    1    6 ar
   3    1   38 1
   4    2    3 ar
   5    2   39 1
   6    3    4 ar
   7    3    7 1
   8    4    5 ar
   9    5    6 ar
  10    5    8 1
  11    6   14 1
  12    7   16 1
  13    7   19 1
  14    8    9 1
  15    9   10 1
  16    9   40 1
  17    9   41 1
  18   10   11 1
  19   10   42 1
  20   10   43 1
  21   11   12 1
  22   11   13 1
  23   11   44 1
  24   12   45 1
  25   12   46 1
  26   12   47 1
  27   13   48 1
  28   13   49 1
  29   13   50 1
  30   14   15 2
  31   14   35 am
  32   16   17 1
  33   16   51 1
  34   16   52 1
  35   17   18 1
  36   17   20 1
  37   17   53 1
  38   18   19 1
  39   18   20 1
  40   18   54 1
  41   19   55 1
  42   19   56 1
  43   20   21 1
  44   20   57 1
  45   21   22 2
  46   21   23 1
  47   23   58 1
  48   24   25 1
  49   24   27 1
  50   24   36 1
  51   24   59 1
  52   25   26 1
  53   25   31 1
  54   25   60 1
  55   26   29 1
  56   26   61 1
  57   26   62 1
  58   27   28 1
  59   27   30 1
  60   27   63 1
  61   28   29 1
  62   28   64 1
  63   28   65 1
  64   29   32 1
  65   29   34 1
  66   30   33 1
  67   30   66 1
  68   30   67 1
  69   31   33 1
  70   31   68 1
  71   31   69 1
  72   32   33 1
  73   32   70 1
  74   32   71 1
  75   33   72 1
  76   34   73 1
  77   35   36 1
  78   35   74 1
  79   36   37 1
  80   36   75 1
  81   37   76 1
  82   37   77 1
  83   37   78 1

#	End of record

