#	Name: ASD03320047
#	Creating user name:	WinNT
#	Creation time:	15. 06. 2019 20:36

#	Modifying user name:	WinNT
#	Modification time:	15. 06. 2019 20:36

#	Program:	/corina/corina34_cracker 3.40 0067  02.08.2006

@<TRIPOS>MOLECULE
ASD03320047
  60   64    0    0    0
SMALL
NO_CHARGES


@<TRIPOS>ATOM
   1 C1            -0.8872    -0.5228    -0.6609 C.ar    
   2 C2            -0.6852    -1.8267    -1.1127 C.ar    
   3 C3             0.1701     0.3579    -0.6026 C.ar    
   4 C4             1.4448    -0.0551    -0.9961 C.ar    
   5 C5             1.6461    -1.3609    -1.4484 C.ar    
   6 C6             0.5875    -2.2401    -1.5059 C.ar    
   7 C7             2.5802     0.8895    -0.9343 C.2     
   8 N8             2.4296     2.1539    -1.3760 N.am    
   9 O9             3.6496     0.5259    -0.4853 O.2     
  10 C10           -1.8244    -2.7745    -1.1746 C.ar    
  11 C11           -1.6352    -4.0788    -1.6238 C.ar    
  12 C12           -2.7400    -4.9300    -1.6620 C.ar    
  13 N13           -3.9244    -4.4677    -1.2707 N.ar    
  14 C14           -4.0620    -3.2256    -0.8517 C.ar    
  15 N15           -3.0448    -2.3922    -0.7954 N.ar    
  16 N16           -2.6055    -6.2378    -2.1015 N.pl3   
  17 C17            3.5147     3.1334    -1.2242 C.3     
  18 C18            3.8447     3.7169    -2.6037 C.3     
  19 N19            2.5927     4.1407    -3.2461 N.am    
  20 C20            1.5076     3.1612    -3.3978 C.3     
  21 C21            1.1797     2.5762    -2.0234 C.3     
  22 C22            2.4422     5.4051    -3.6877 C.2     
  23 C23            1.1417     5.8480    -4.2300 C.ar    
  24 O24            3.3768     6.1811    -3.6398 O.2     
  25 C25            0.5439     5.1475    -5.2799 C.ar    
  26 C26           -0.6700     5.5661    -5.7815 C.ar    
  27 C27           -1.2980     6.6789    -5.2482 C.ar    
  28 C28           -0.7143     7.3790    -4.2094 C.ar    
  29 C29            0.5002     6.9673    -3.6909 C.ar    
  30 C30           -3.7168    -7.0901    -2.1143 C.ar    
  31 C31           -3.5516    -8.4533    -1.8952 C.ar    
  32 C32           -4.6511    -9.2921    -1.9080 C.ar    
  33 C33           -5.9145    -8.7747    -2.1387 C.ar    
  34 C34           -6.0801    -7.4174    -2.3574 C.ar    
  35 C35           -4.9857    -6.5745    -2.3399 C.ar    
  36 F36            1.0705     7.6516    -2.6752 F       
  37 F37           -2.3186    -8.9577    -1.6706 F       
  38 F38           -6.9875    -9.5956    -2.1508 F       
  39 H39           -1.8739    -0.2023    -0.3608 H       
  40 H40            0.0134     1.3676    -0.2530 H       
  41 H41            2.6314    -1.6811    -1.7533 H       
  42 H42            0.7429    -3.2500    -1.8557 H       
  43 H43           -0.6596    -4.4221    -1.9347 H       
  44 H44           -5.0379    -2.8826    -0.5415 H       
  45 H45           -1.7417    -6.5627    -2.4002 H       
  46 H46            3.1950     3.9329    -0.5558 H       
  47 H47            4.3969     2.6416    -0.8145 H       
  48 H48            4.5060     4.5757    -2.4890 H       
  49 H49            4.3308     2.9569    -3.2155 H       
  50 H50            0.6254     3.6531    -3.8076 H       
  51 H51            1.8273     2.3617    -4.0662 H       
  52 H52            0.5184     1.7176    -2.1396 H       
  53 H53            0.6940     3.3347    -1.4095 H       
  54 H54            1.0319     4.2796    -5.6984 H       
  55 H55           -1.1325     5.0246    -6.5935 H       
  56 H56           -2.2488     7.0015    -5.6462 H       
  57 H57           -1.2095     8.2465    -3.7987 H       
  58 H58           -4.5241   -10.3511    -1.7383 H       
  59 H59           -7.0667    -7.0166    -2.5374 H       
  60 H60           -5.1163    -5.5161    -2.5103 H       
@<TRIPOS>BOND
   1    1    2 ar
   2    1    3 ar
   3    1   39 1
   4    2   10 1
   5    2    6 ar
   6    3    4 ar
   7    3   40 1
   8    4    5 ar
   9    4    7 1
  10    5    6 ar
  11    5   41 1
  12    6   42 1
  13    7    8 am
  14    7    9 2
  15    8   17 1
  16    8   21 1
  17   10   11 ar
  18   10   15 ar
  19   11   12 ar
  20   11   43 1
  21   12   13 ar
  22   12   16 1
  23   13   14 ar
  24   14   15 ar
  25   14   44 1
  26   16   30 1
  27   16   45 1
  28   17   18 1
  29   17   46 1
  30   17   47 1
  31   18   19 1
  32   18   48 1
  33   18   49 1
  34   19   20 1
  35   19   22 am
  36   20   21 1
  37   20   50 1
  38   20   51 1
  39   21   52 1
  40   21   53 1
  41   22   23 1
  42   22   24 2
  43   23   25 ar
  44   23   29 ar
  45   25   26 ar
  46   25   54 1
  47   26   27 ar
  48   26   55 1
  49   27   28 ar
  50   27   56 1
  51   28   29 ar
  52   28   57 1
  53   29   36 1
  54   30   31 ar
  55   30   35 ar
  56   31   32 ar
  57   31   37 1
  58   32   33 ar
  59   32   58 1
  60   33   34 ar
  61   33   38 1
  62   34   35 ar
  63   34   59 1
  64   35   60 1

#	End of record

