#	Name: ASD01420074
#	Creating user name:	WinNT
#	Creation time:	15. 06. 2019 19:20

#	Modifying user name:	WinNT
#	Modification time:	15. 06. 2019 19:20

#	Program:	/corina/corina34_cracker 3.40 0067  02.08.2006

@<TRIPOS>MOLECULE
ASD01420074
  58   62    0    0    0
SMALL
NO_CHARGES


@<TRIPOS>ATOM
   1 C1            -0.0144     1.2120     0.0087 C.2     
   2 O2             0.2413     0.1766     0.5932 O.2     
   3 C3             2.3288     1.3987    -0.8834 C.3     
   4 N4             0.9272     1.8084    -0.7489 N.am    
   5 C5             0.7462     2.9909    -1.5969 C.3     
   6 C6             2.0705     3.2926    -2.2517 C.ar    
   7 C7             2.4446     4.2906    -3.1354 C.ar    
   8 C8             3.7442     4.3536    -3.5995 C.ar    
   9 C9             4.6730     3.4191    -3.1807 C.ar    
  10 C10            4.3005     2.4233    -2.2986 C.ar    
  11 C11            2.9981     2.3594    -1.8335 C.ar    
  12 C12           -1.3552     1.8110     0.1240 C.ar    
  13 C13           -2.4977     0.9997     0.0511 C.ar    
  14 C14           -3.7540     1.5703     0.1602 C.ar    
  15 C15           -3.8815     2.9396     0.3411 C.ar    
  16 C16           -2.7491     3.7462     0.4137 C.ar    
  17 C17           -1.4943     3.1896     0.3122 C.ar    
  18 Br18          -2.9354     5.6119     0.6598 Br      
  19 O19           -5.1152     3.4955     0.4472 O.3     
  20 C20           -6.2345     2.6111     0.3638 C.3     
  21 C21           -7.5104     3.4012     0.5014 C.ar    
  22 C22           -8.1284     3.9173    -0.6222 C.ar    
  23 C23           -9.2987     4.6421    -0.4959 C.ar    
  24 C24           -9.8512     4.8505     0.7540 C.ar    
  25 C25           -9.2336     4.3337     1.8775 C.ar    
  26 C26           -8.0656     3.6052     1.7508 C.ar    
  27 O27           -2.3715    -0.3394    -0.1263 O.3     
  28 C28           -3.5783    -1.1019    -0.1910 C.3     
  29 C29           -3.2428    -2.5576    -0.3894 C.ar    
  30 C30           -3.0553    -3.3792     0.7063 C.ar    
  31 C31           -2.7474    -4.7145     0.5243 C.ar    
  32 C32           -2.6275    -5.2283    -0.7534 C.ar    
  33 C33           -2.8160    -4.4068    -1.8492 C.ar    
  34 C34           -3.1281    -3.0725    -1.6672 C.ar    
  35 H35            2.8201     1.4381     0.0887 H       
  36 H36            2.3809     0.3864    -1.2840 H       
  37 H37           -0.0052     2.7870    -2.3598 H       
  38 H38            0.4340     3.8387    -0.9870 H       
  39 H39            1.7192     5.0207    -3.4627 H       
  40 H40            4.0344     5.1322    -4.2894 H       
  41 H41            5.6892     3.4673    -3.5433 H       
  42 H42            5.0261     1.6932    -1.9719 H       
  43 H43           -4.6356     0.9490     0.1042 H       
  44 H44           -0.6179     3.8178     0.3738 H       
  45 H45           -6.2245     2.1023    -0.6002 H       
  46 H46           -6.1756     1.8738     1.1644 H       
  47 H47           -7.6968     3.7545    -1.5987 H       
  48 H48           -9.7812     5.0459    -1.3737 H       
  49 H49          -10.7651     5.4174     0.8527 H       
  50 H50           -9.6650     4.4968     2.8541 H       
  51 H51           -7.5851     3.1982     2.6283 H       
  52 H52           -4.1350    -0.9807     0.7383 H       
  53 H53           -4.1849    -0.7517    -1.0262 H       
  54 H54           -3.1489    -2.9778     1.7046 H       
  55 H55           -2.6002    -5.3563     1.3804 H       
  56 H56           -2.3863    -6.2713    -0.8956 H       
  57 H57           -2.7220    -4.8081    -2.8474 H       
  58 H58           -3.2789    -2.4316    -2.5232 H       
@<TRIPOS>BOND
   1    1    2 2
   2    1    4 am
   3    1   12 1
   4    3    4 1
   5    3   11 1
   6    3   35 1
   7    3   36 1
   8    4    5 1
   9    5    6 1
  10    5   37 1
  11    5   38 1
  12    6    7 ar
  13    6   11 ar
  14    7    8 ar
  15    7   39 1
  16    8    9 ar
  17    8   40 1
  18    9   10 ar
  19    9   41 1
  20   10   11 ar
  21   10   42 1
  22   12   13 ar
  23   12   17 ar
  24   13   14 ar
  25   13   27 1
  26   14   15 ar
  27   14   43 1
  28   15   16 ar
  29   15   19 1
  30   16   17 ar
  31   16   18 1
  32   17   44 1
  33   19   20 1
  34   20   21 1
  35   20   45 1
  36   20   46 1
  37   21   22 ar
  38   21   26 ar
  39   22   23 ar
  40   22   47 1
  41   23   24 ar
  42   23   48 1
  43   24   25 ar
  44   24   49 1
  45   25   26 ar
  46   25   50 1
  47   26   51 1
  48   27   28 1
  49   28   29 1
  50   28   52 1
  51   28   53 1
  52   29   30 ar
  53   29   34 ar
  54   30   31 ar
  55   30   54 1
  56   31   32 ar
  57   31   55 1
  58   32   33 ar
  59   32   56 1
  60   33   34 ar
  61   33   57 1
  62   34   58 1

#	End of record

