#	Name: ASD01917134
#	Creating user name:	WinNT
#	Creation time:	15. 06. 2019 20:08

#	Modifying user name:	WinNT
#	Modification time:	15. 06. 2019 20:08

#	Program:	/corina/corina34_cracker 3.40 0067  02.08.2006

@<TRIPOS>MOLECULE
ASD01917134
  51   54    0    0    0
SMALL
NO_CHARGES


@<TRIPOS>ATOM
   1 C1            -0.0171     1.4084     0.0098 C.ar    
   2 C2             0.0021    -0.0041     0.0020 C.ar    
   3 C3            -1.1925    -0.7196     0.0400 C.ar    
   4 C4            -2.3902    -0.0393     0.0716 C.ar    
   5 C5            -2.4136     1.3494     0.0659 C.ar    
   6 C6            -1.2441     2.0748     0.0361 C.ar    
   7 N7             1.1593     2.0732     0.0021 N.2     
   8 C8             2.3195     1.4657    -0.0392 C.2     
   9 N9             2.4203     0.1177    -0.1560 N.am    
  10 C10            1.3102    -0.6646    -0.0612 C.2     
  11 C11           -3.7362     2.0712     0.0928 C.3     
  12 O12            1.4007    -1.8781    -0.0293 O.2     
  13 C13           -4.1510     2.3219     1.5440 C.3     
  14 C14            3.5352     2.3436     0.1019 C.3     
  15 C15            4.7917     1.6909    -0.4307 C.3     
  16 C16            4.8967     0.2349    -0.0255 C.3     
  17 C17            3.6799    -0.5639    -0.4341 C.3     
  18 C18            6.1350    -0.3754    -0.6852 C.3     
  19 C19            5.0563     0.1533     1.4939 C.3     
  20 C20           -5.4099     3.1500     1.5707 C.ar    
  21 C21           -4.4062     0.9835     2.2400 C.3     
  22 N22           -5.3257     4.4598     1.6967 N.ar    
  23 C23           -6.4001     5.2242     1.7249 C.ar    
  24 C24           -7.6629     4.6727     1.6227 C.ar    
  25 C25           -7.7913     3.2984     1.4888 C.ar    
  26 C26           -6.6391     2.5281     1.4571 C.ar    
  27 H27           -1.1799    -1.7995     0.0441 H       
  28 H28           -3.3185    -0.5905     0.1008 H       
  29 H29           -1.2753     3.1544     0.0327 H       
  30 H30           -3.6407     3.0241    -0.4276 H       
  31 H31           -4.4929     1.4616    -0.4013 H       
  32 H32           -3.3543     2.8551     2.0626 H       
  33 H33            3.3635     3.2725    -0.4420 H       
  34 H34            3.6800     2.5773     1.1566 H       
  35 H35            4.7901     1.7560    -1.5188 H       
  36 H36            5.6591     2.2282    -0.0472 H       
  37 H37            3.6891    -1.5133     0.1012 H       
  38 H38            3.7384    -0.7678    -1.5033 H       
  39 H39            7.0240     0.1632    -0.3573 H       
  40 H40            6.2193    -1.4239    -0.3995 H       
  41 H41            6.0436    -0.3003    -1.7688 H       
  42 H42            4.1904     0.6080     1.9751 H       
  43 H43            5.1328    -0.8914     1.7956 H       
  44 H44            5.9594     0.6850     1.7935 H       
  45 H45           -4.7017     1.1621     3.2738 H       
  46 H46           -5.2029     0.4503     1.7213 H       
  47 H47           -3.4957     0.3845     2.2207 H       
  48 H48           -6.2915     6.2937     1.8295 H       
  49 H49           -8.5389     5.3039     1.6472 H       
  50 H50           -8.7655     2.8395     1.4072 H       
  51 H51           -6.7016     1.4549     1.3535 H       
@<TRIPOS>BOND
   1    1    2 ar
   2    1    7 1
   3    1    6 ar
   4    2    3 ar
   5    2   10 1
   6    3    4 ar
   7    3   27 1
   8    4    5 ar
   9    4   28 1
  10    5    6 ar
  11    5   11 1
  12    6   29 1
  13    7    8 2
  14    8    9 1
  15    8   14 1
  16    9   10 am
  17    9   17 1
  18   10   12 2
  19   11   13 1
  20   11   30 1
  21   11   31 1
  22   13   20 1
  23   13   21 1
  24   13   32 1
  25   14   15 1
  26   14   33 1
  27   14   34 1
  28   15   16 1
  29   15   35 1
  30   15   36 1
  31   16   17 1
  32   16   18 1
  33   16   19 1
  34   17   37 1
  35   17   38 1
  36   18   39 1
  37   18   40 1
  38   18   41 1
  39   19   42 1
  40   19   43 1
  41   19   44 1
  42   20   22 ar
  43   20   26 ar
  44   21   45 1
  45   21   46 1
  46   21   47 1
  47   22   23 ar
  48   23   24 ar
  49   23   48 1
  50   24   25 ar
  51   24   49 1
  52   25   26 ar
  53   25   50 1
  54   26   51 1

#	End of record

