#	Name: ASD02039349
#	Creating user name:	WinNT
#	Creation time:	15. 06. 2019 20:18

#	Modifying user name:	WinNT
#	Modification time:	15. 06. 2019 20:18

#	Program:	/corina/corina34_cracker 3.40 0067  02.08.2006

@<TRIPOS>MOLECULE
ASD02039349
  47   49    0    0    0
SMALL
NO_CHARGES


@<TRIPOS>ATOM
   1 C1            -0.0875     1.3445     0.4753 C.ar    
   2 C2             0.1979    -0.0129     0.5144 C.ar    
   3 C3            -0.8407    -0.9224     0.5924 C.ar    
   4 C4            -2.4084     0.7721     0.6061 C.ar    
   5 C5            -1.4124     1.7427     0.5219 C.ar    
   6 C6            -3.8327     1.1823     0.6569 C.ar    
   7 C7             1.0203     2.3625     0.3903 C.3     
   8 N8             1.4062     2.5484    -1.0107 N.am    
   9 C9             0.6533     3.4735    -1.8613 C.3     
  10 C10            2.4539     1.8683    -1.5170 C.2     
  11 C11            3.1415     0.8566    -0.6960 C.2     
  12 C12            4.1351     0.0196    -1.1125 C.2     
  13 N13            2.9060     0.5914     0.6144 N.2     
  14 C14            3.7027    -0.3629     1.0005 C.2     
  15 N15            4.4798    -0.7416    -0.0474 N.pl3   
  16 O16            2.8316     2.0898    -2.6517 O.2     
  17 C17            5.5061    -1.7868    -0.0286 C.3     
  18 C18           -4.1694     2.5329     0.7338 C.ar    
  19 N19           -2.0936    -0.5168     0.6295 N.ar    
  20 C20            1.5555     4.6398    -2.2697 C.3     
  21 C21            0.1723     2.7381    -3.1138 C.3     
  22 C22           -4.8406     0.2185     0.6221 C.ar    
  23 C23           -6.1686     0.6092     0.6694 C.ar    
  24 C24           -6.4935     1.9524     0.7511 C.ar    
  25 C25           -5.4956     2.9104     0.7804 C.ar    
  26 F26           -4.5223    -1.0920     0.5419 F       
  27 F27           -7.1475    -0.3212     0.6354 F       
  28 H28            1.2216    -0.3557     0.4839 H       
  29 H29           -0.6219    -1.9795     0.6231 H       
  30 H30           -1.6700     2.7913     0.5030 H       
  31 H31            0.6743     3.3112     0.8008 H       
  32 H32            1.8805     2.0120     0.9606 H       
  33 H33           -0.2068     3.8549    -1.3110 H       
  34 H34            4.5642    -0.0270    -2.1025 H       
  35 H35            3.7418    -0.7835     1.9945 H       
  36 H36            5.0557    -2.7431    -0.2943 H       
  37 H37            6.2880    -1.5413    -0.7473 H       
  38 H38            5.9383    -1.8536     0.9698 H       
  39 H39           -3.3928     3.2830     0.7573 H       
  40 H40            2.3444     4.2758    -2.9279 H       
  41 H41            0.9637     5.3910    -2.7928 H       
  42 H42            2.0011     5.0835    -1.3794 H       
  43 H43           -0.3786     1.8442    -2.8211 H       
  44 H44           -0.4792     3.3932    -3.6921 H       
  45 H45            1.0318     2.4528    -3.7203 H       
  46 H46           -7.5299     2.2538     0.7875 H       
  47 H47           -5.7556     3.9567     0.8446 H       
@<TRIPOS>BOND
   1    1    2 ar
   2    1    7 1
   3    1    5 ar
   4    2    3 ar
   5    2   28 1
   6    3   19 ar
   7    3   29 1
   8    4    5 ar
   9    4    6 1
  10    4   19 ar
  11    5   30 1
  12    6   18 ar
  13    6   22 ar
  14    7    8 1
  15    7   31 1
  16    7   32 1
  17    8    9 1
  18    8   10 am
  19    9   21 1
  20    9   20 1
  21    9   33 1
  22   10   11 1
  23   10   16 2
  24   11   12 2
  25   11   13 1
  26   12   15 1
  27   12   34 1
  28   13   14 2
  29   14   15 1
  30   14   35 1
  31   15   17 1
  32   17   36 1
  33   17   37 1
  34   17   38 1
  35   18   25 ar
  36   18   39 1
  37   20   40 1
  38   20   41 1
  39   20   42 1
  40   21   43 1
  41   21   44 1
  42   21   45 1
  43   22   23 ar
  44   22   26 1
  45   23   24 ar
  46   23   27 1
  47   24   25 ar
  48   24   46 1
  49   25   47 1

#	End of record

