#	Name: ASD01870075
#	Creating user name:	WinNT
#	Creation time:	15. 06. 2019 19:38

#	Modifying user name:	WinNT
#	Modification time:	15. 06. 2019 19:38

#	Program:	/corina/corina34_cracker 3.40 0067  02.08.2006

@<TRIPOS>MOLECULE
ASD01870075
  43   45    0    0    0
SMALL
NO_CHARGES


@<TRIPOS>ATOM
   1 C1            -0.0187     1.5258     0.0104 C.3     
   2 C2             0.0021    -0.0041     0.0020 C.3     
   3 O3            -1.3601    -0.5067     0.0123 O.3     
   4 C4            -1.5184    -1.8432     0.0067 C.2     
   5 N5            -2.7566    -2.3752     0.0156 N.am    
   6 C6            -2.9151    -3.7136     0.0099 C.2     
   7 C7            -4.2996    -4.3085     0.0200 C.3     
   8 C8            -4.1950    -5.8093     0.0109 C.ar    
   9 C9            -5.0332    -3.8377     1.2461 C.ar    
  10 O10           -1.9438    -4.4390    -0.0032 O.2     
  11 O11           -0.5452    -2.5699    -0.0065 O.2     
  12 C12           -5.1898    -4.6702     2.3422 C.ar    
  13 C13           -5.8735    -4.2133     3.4633 C.ar    
  14 C14           -6.3929    -2.9347     3.4847 C.ar    
  15 C15           -6.2335    -2.1053     2.3899 C.ar    
  16 C16           -5.5552    -2.5565     1.2738 C.ar    
  17 C17           -3.8993    -6.4614    -1.1732 C.ar    
  18 C18           -3.7978    -7.8390    -1.2024 C.ar    
  19 C19           -3.9922    -8.5718    -0.0461 C.ar    
  20 C20           -4.2878    -7.9269     1.1380 C.ar    
  21 C21           -4.3914    -6.5409     1.1707 C.ar    
  22 C22            1.4167     2.0553    -0.0004 C.3     
  23 C23            1.3960     3.5852     0.0080 C.3     
  24 O24           -4.6848    -5.9270     2.3419 O.3     
  25 H25           -0.5459     1.8868    -0.8726 H       
  26 H26           -0.5289     1.8773     0.9072 H       
  27 H27            0.5123    -0.3556    -0.8948 H       
  28 H28            0.5293    -0.3651     0.8851 H       
  29 H29           -3.5338    -1.7949     0.0262 H       
  30 H30           -4.8384    -3.9803    -0.8689 H       
  31 H31           -5.9987    -4.8603     4.3189 H       
  32 H32           -6.9241    -2.5822     4.3565 H       
  33 H33           -6.6391    -1.1045     2.4072 H       
  34 H34           -5.4323    -1.9068     0.4199 H       
  35 H35           -3.7475    -5.8914    -2.0779 H       
  36 H36           -3.5669    -8.3438    -2.1289 H       
  37 H37           -3.9131    -9.6487    -0.0694 H       
  38 H38           -4.4398    -8.5002     2.0406 H       
  39 H39            1.9439     1.6943     0.8826 H       
  40 H40            1.9269     1.7038    -0.8972 H       
  41 H41            0.8688     3.9463    -0.8751 H       
  42 H42            0.8858     3.9367     0.9048 H       
  43 H43            2.4186     3.9625     0.0002 H       
@<TRIPOS>BOND
   1    1    2 1
   2    1   22 1
   3    1   25 1
   4    1   26 1
   5    2    3 1
   6    2   27 1
   7    2   28 1
   8    3    4 1
   9    4    5 am
  10    4   11 2
  11    5    6 am
  12    5   29 1
  13    6    7 1
  14    6   10 2
  15    7    8 1
  16    7    9 1
  17    7   30 1
  18    8   17 ar
  19    8   21 ar
  20    9   12 ar
  21    9   16 ar
  22   12   13 ar
  23   12   24 1
  24   13   14 ar
  25   13   31 1
  26   14   15 ar
  27   14   32 1
  28   15   16 ar
  29   15   33 1
  30   16   34 1
  31   17   18 ar
  32   17   35 1
  33   18   19 ar
  34   18   36 1
  35   19   20 ar
  36   19   37 1
  37   20   21 ar
  38   20   38 1
  39   21   24 1
  40   22   23 1
  41   22   39 1
  42   22   40 1
  43   23   41 1
  44   23   42 1
  45   23   43 1

#	End of record

