#	Name: ASD01470006
#	Creating user name:	WinNT
#	Creation time:	15. 06. 2019 19:21

#	Modifying user name:	WinNT
#	Modification time:	15. 06. 2019 19:21

#	Program:	/corina/corina34_cracker 3.40 0067  02.08.2006

@<TRIPOS>MOLECULE
ASD01470006
 135  136    0    0    0
SMALL
NO_CHARGES


@<TRIPOS>ATOM
   1 C1            -5.6982     3.2663     2.0400 C.ar    
   2 C2            -5.7253     1.8909     2.1758 C.ar    
   3 C3            -4.5425     1.1834     2.2816 C.ar    
   4 C4            -3.3325     1.8513     2.2512 C.ar    
   5 C5            -3.3054     3.2266     2.1144 C.ar    
   6 C6            -4.4883     3.9342     2.0100 C.ar    
   7 C7            -7.0444     1.1628     2.2090 C.3     
   8 C8            -7.4482     0.7739     0.7854 C.3     
   9 N9            -7.6939     1.9855    -0.0007 N.am    
  10 C10           -7.5664     1.9558    -1.3421 C.2     
  11 C11           -7.8192     3.2021    -2.1508 C.3     
  12 O12           -7.2483     0.9261    -1.8984 O.2     
  13 N13           -7.6165     2.9114    -3.5722 N.am    
  14 C14           -9.2577     3.6725    -1.9265 C.3     
  15 C15          -10.2140     2.6215    -2.4285 C.2     
  16 N16          -11.5414     2.8537    -2.4089 N.am    
  17 O17           -9.7890     1.5668    -2.8502 O.2     
  18 C18           -7.3400     3.9119    -4.4319 C.2     
  19 O19           -7.3477     5.0619    -4.0468 O.2     
  20 C20           -7.0214     3.6016    -5.8718 C.3     
  21 C21           -6.7480     4.9045    -6.6259 C.3     
  22 C22           -6.4246     4.5895    -8.0877 C.3     
  23 C23           -6.1512     5.8924    -8.8418 C.3     
  24 C24           -3.7638     9.8441   -17.7053 C.3     
  25 C25           -3.4403     9.5291   -19.1672 C.3     
  26 C26           -2.8483    10.5217   -21.3611 C.2     
  27 O27           -2.8406     9.3717   -21.7463 O.2     
  28 C28           -2.5910    12.4163   -24.4768 C.2     
  29 N29           -2.3862    12.3687   -25.8080 N.am    
  30 O30           -3.0399    13.4215   -23.9678 O.2     
  31 C31           -2.5954    13.5669   -26.6246 C.3     
  32 C32           -1.3523    14.4560   -26.5534 C.3     
  33 C33           -2.8427    13.1629   -28.0553 C.2     
  34 C34           -1.5862    15.7263   -27.3734 C.3     
  35 C35           -2.6828    16.5647   -26.7134 C.3     
  36 C36           -0.2912    16.5387   -27.4359 C.3     
  37 O37           -2.5322    12.0535   -28.4344 O.2     
  38 N38           -3.4090    14.0344   -28.9133 N.am    
  39 C39           -3.1669    10.8320   -19.9212 C.3     
  40 C40           -3.8248    14.4560   -33.4489 C.ar    
  41 C41           -4.1544    14.0508   -34.7278 C.ar    
  42 C42           -5.4104    13.5203   -34.9841 C.ar    
  43 C43           -6.3324    13.3981   -33.9547 C.ar    
  44 C44           -5.9978    13.8043   -32.6774 C.ar    
  45 C45           -4.7455    14.3331   -32.4247 C.ar    
  46 C46           -3.7611    13.6040   -30.2687 C.3     
  47 C47           -4.3833    14.7759   -31.0305 C.3     
  48 N48           -2.5719    11.5222   -22.2208 N.am    
  49 C49           -2.2621    11.2206   -23.6206 C.3     
  50 C50           -0.7739    10.8915   -23.7541 C.3     
  51 O51            0.0021    12.0122   -23.3254 O.3     
  52 C52           -0.4401     9.6774   -22.8849 C.3     
  53 O53           -5.7372    13.1215   -36.2415 O.3     
  54 C54           -8.7029    -0.0596     0.8292 C.2     
  55 O55           -9.7001     0.3195     0.2619 O.2     
  56 O56           -8.7127    -1.2231     1.4984 O.3     
  57 C57           -5.8277     5.5774   -10.3036 C.3     
  58 C58           -5.5543     6.8803   -11.0577 C.3     
  59 C59           -5.2309     6.5653   -12.5195 C.3     
  60 C60           -4.9575     7.8682   -13.2736 C.3     
  61 C61           -4.6340     7.5532   -14.7354 C.3     
  62 C62           -4.3606     8.8561   -15.4894 C.3     
  63 C63           -4.0371     8.5411   -16.9513 C.3     
  64 H64           -6.6222     3.8186     1.9528 H       
  65 H65           -4.5637     0.1089     2.3884 H       
  66 H66           -2.4084     1.2986     2.3345 H       
  67 H67           -2.3601     3.7484     2.0910 H       
  68 H68           -4.4671     5.0087     1.9028 H       
  69 H69           -6.9479     0.2638     2.8177 H       
  70 H70           -7.8072     1.8123     2.6384 H       
  71 H71           -6.6455     0.1983     0.3245 H       
  72 H72           -7.9484     2.8090     0.4442 H       
  73 H73           -7.1280     3.9847    -1.8378 H       
  74 H74           -7.6812     1.9988    -3.8947 H       
  75 H75           -9.4245     3.8367    -0.8619 H       
  76 H76           -9.4241     4.6036    -2.4682 H       
  77 H77          -11.8813     3.6972    -2.0716 H       
  78 H78          -12.1569     2.1772    -2.7320 H       
  79 H79           -6.1397     2.9625    -5.9193 H       
  80 H80           -7.8674     3.0881    -6.3286 H       
  81 H81           -7.6297     5.5436    -6.5784 H       
  82 H82           -5.9021     5.4180    -6.1690 H       
  83 H83           -5.5429     3.9504    -8.1352 H       
  84 H84           -7.2706     4.0760    -8.5445 H       
  85 H85           -7.0329     6.5315    -8.7943 H       
  86 H86           -5.3052     6.4059    -8.3849 H       
  87 H87           -2.9178    10.3576   -17.2485 H       
  88 H88           -4.6455    10.4832   -17.6579 H       
  89 H89           -2.5586     8.8899   -19.2146 H       
  90 H90           -4.2863     9.0155   -19.6240 H       
  91 H91           -2.1004    11.5411   -26.2255 H       
  92 H92           -3.4577    14.1171   -26.2482 H       
  93 H93           -1.1566    14.7245   -25.5153 H       
  94 H94           -0.4957    13.9159   -26.9566 H       
  95 H95           -1.8942    15.4554   -28.3833 H       
  96 H96           -2.4227    16.7472   -25.6708 H       
  97 H97           -2.7769    17.5164   -27.2364 H       
  98 H98           -3.6300    16.0277   -26.7629 H       
  99 H99            0.4901    15.9415   -27.9061 H       
 100 H100          -0.4578    17.4437   -28.0201 H       
 101 H101           0.0168    16.8097   -26.4260 H       
 102 H102          -3.5834    14.9466   -28.6335 H       
 103 H103          -4.0486    11.4711   -19.8738 H       
 104 H104          -2.3209    11.3455   -19.4644 H       
 105 H105          -2.8456    14.8649   -33.2480 H       
 106 H106          -3.4350    14.1474   -35.5275 H       
 107 H107          -7.3109    12.9857   -34.1517 H       
 108 H108          -6.7153    13.7096   -31.8758 H       
 109 H109          -2.8634    13.2686   -30.7881 H       
 110 H110          -4.4774    12.7842   -30.2150 H       
 111 H111          -3.6669    15.5957   -31.0842 H       
 112 H112          -5.2810    15.1113   -30.5111 H       
 113 H113          -2.5780    12.4419   -21.9128 H       
 114 H114          -2.8540    10.3657   -23.9476 H       
 115 H115          -0.5435    10.6670   -24.7956 H       
 116 H116           0.9575    11.8742   -23.3829 H       
 117 H117          -0.6705     9.9019   -21.8434 H       
 118 H118          -1.0320     8.8226   -23.2119 H       
 119 H119           0.6202     9.4430   -22.9800 H       
 120 H120          -5.5260    12.1965   -36.4280 H       
 121 H121          -9.5407    -1.7228     1.4981 H       
 122 H122          -4.9460     4.9383   -10.3511 H       
 123 H123          -6.6737     5.0639   -10.7604 H       
 124 H124          -6.4360     7.5194   -11.0102 H       
 125 H125          -4.7083     7.3939   -10.6008 H       
 126 H126          -4.3492     5.9262   -12.5670 H       
 127 H127          -6.0768     6.0518   -12.9763 H       
 128 H128          -5.8392     8.5073   -13.2261 H       
 129 H129          -4.1115     8.3818   -12.8167 H       
 130 H130          -3.7523     6.9141   -14.7829 H       
 131 H131          -5.4800     7.0397   -15.1922 H       
 132 H132          -5.2423     9.4953   -15.4420 H       
 133 H133          -3.5146     9.3697   -15.0326 H       
 134 H134          -4.8831     8.0276   -17.4081 H       
 135 H135          -3.1554     7.9020   -16.9988 H       
@<TRIPOS>BOND
   1    1    2 ar
   2    1    6 ar
   3    1   64 1
   4    2    3 ar
   5    2    7 1
   6    3    4 ar
   7    3   65 1
   8    4    5 ar
   9    4   66 1
  10    5    6 ar
  11    5   67 1
  12    6   68 1
  13    7    8 1
  14    7   69 1
  15    7   70 1
  16    8    9 1
  17    8   54 1
  18    8   71 1
  19    9   10 am
  20    9   72 1
  21   10   11 1
  22   10   12 2
  23   11   13 1
  24   11   14 1
  25   11   73 1
  26   13   18 am
  27   13   74 1
  28   14   15 1
  29   14   75 1
  30   14   76 1
  31   15   16 am
  32   15   17 2
  33   16   77 1
  34   16   78 1
  35   18   19 2
  36   18   20 1
  37   20   21 1
  38   20   79 1
  39   20   80 1
  40   21   22 1
  41   21   81 1
  42   21   82 1
  43   22   23 1
  44   22   83 1
  45   22   84 1
  46   23   57 1
  47   23   85 1
  48   23   86 1
  49   24   25 1
  50   24   63 1
  51   24   87 1
  52   24   88 1
  53   25   39 1
  54   25   89 1
  55   25   90 1
  56   26   27 2
  57   26   48 am
  58   26   39 1
  59   28   29 am
  60   28   30 2
  61   28   49 1
  62   29   31 1
  63   29   91 1
  64   31   32 1
  65   31   33 1
  66   31   92 1
  67   32   34 1
  68   32   93 1
  69   32   94 1
  70   33   37 2
  71   33   38 am
  72   34   35 1
  73   34   36 1
  74   34   95 1
  75   35   96 1
  76   35   97 1
  77   35   98 1
  78   36   99 1
  79   36  100 1
  80   36  101 1
  81   38   46 1
  82   38  102 1
  83   39  103 1
  84   39  104 1
  85   40   41 ar
  86   40   45 ar
  87   40  105 1
  88   41   42 ar
  89   41  106 1
  90   42   43 ar
  91   42   53 1
  92   43   44 ar
  93   43  107 1
  94   44   45 ar
  95   44  108 1
  96   45   47 1
  97   46   47 1
  98   46  109 1
  99   46  110 1
 100   47  111 1
 101   47  112 1
 102   48   49 1
 103   48  113 1
 104   49   50 1
 105   49  114 1
 106   50   51 1
 107   50   52 1
 108   50  115 1
 109   51  116 1
 110   52  117 1
 111   52  118 1
 112   52  119 1
 113   53  120 1
 114   54   55 2
 115   54   56 1
 116   56  121 1
 117   57   58 1
 118   57  122 1
 119   57  123 1
 120   58   59 1
 121   58  124 1
 122   58  125 1
 123   59   60 1
 124   59  126 1
 125   59  127 1
 126   60   61 1
 127   60  128 1
 128   60  129 1
 129   61   62 1
 130   61  130 1
 131   61  131 1
 132   62   63 1
 133   62  132 1
 134   62  133 1
 135   63  134 1
 136   63  135 1

#	End of record

