#	Name: ASD02408060
#	Creating user name:	WinNT
#	Creation time:	15. 06. 2019 20:21

#	Modifying user name:	WinNT
#	Modification time:	15. 06. 2019 20:21

#	Program:	/corina/corina34_cracker 3.40 0067  02.08.2006

@<TRIPOS>MOLECULE
ASD02408060
  43   45    0    0    0
SMALL
NO_CHARGES


@<TRIPOS>ATOM
   1 C1            -0.0167     1.3777     0.0096 C.ar    
   2 C2             0.0021    -0.0041     0.0020 C.ar    
   3 C3             1.2781     2.1488     0.0014 C.3     
   4 C4             1.6962     2.4134    -1.4221 C.2     
   5 N5             2.8358     3.0945    -1.6501 N.am    
   6 N6             0.9446     1.9704    -2.3931 N.2     
   7 C7             1.2664     2.1753    -3.6768 C.2     
   8 C8             2.4395     2.8832    -3.9865 C.2     
   9 C9             3.2405     3.3489    -2.9123 C.2     
  10 N10            0.4585     1.6982    -4.6796 N.pl3   
  11 C11           -0.7629     0.9605    -4.3476 C.3     
  12 O12            4.2686     3.9685    -3.1243 O.2     
  13 C13           -1.1869    -0.7119     0.0091 C.ar    
  14 C14           -2.3936    -0.0358     0.0238 C.ar    
  15 C15           -2.4111     1.3464     0.0314 C.ar    
  16 C16           -1.2232     2.0530     0.0190 C.ar    
  17 Cl17          -1.1642    -2.4477    -0.0010 Cl      
  18 C18           -1.7611     1.0816    -5.5008 C.3     
  19 C19           -3.0367     0.3112    -5.1542 C.3     
  20 C20           -2.6963    -1.1631    -4.9271 C.3     
  21 C21           -1.6980    -1.2842    -3.7739 C.3     
  22 C22           -0.4224    -0.5138    -4.1205 C.3     
  23 C23            2.8184     3.1231    -5.3465 C.1     
  24 N24            3.1190     3.3134    -6.4253 N.1     
  25 H25            0.9445    -0.5314    -0.0098 H       
  26 H26            1.1399     3.0965     0.5217 H       
  27 H27            2.0505     1.5672     0.5048 H       
  28 H28            3.3693     3.4046    -0.9017 H       
  29 H29            0.6966     1.8496    -5.6076 H       
  30 H30           -1.2030     1.3756    -3.4410 H       
  31 H31           -3.3219    -0.5877     0.0290 H       
  32 H32           -3.3532     1.8744     0.0429 H       
  33 H33           -1.2373     3.1328     0.0253 H       
  34 H34           -2.0036     2.1319    -5.6626 H       
  35 H35           -1.3210     0.6665    -6.4075 H       
  36 H36           -3.4768     0.7263    -4.2475 H       
  37 H37           -3.7479     0.3975    -5.9757 H       
  38 H38           -3.6050    -1.7120    -4.6801 H       
  39 H39           -2.2562    -1.5782    -5.8337 H       
  40 H40           -2.1382    -0.8691    -2.8672 H       
  41 H41           -1.4555    -2.3345    -3.6121 H       
  42 H42            0.0177    -0.9289    -5.0272 H       
  43 H43            0.2887    -0.6001    -3.2990 H       
@<TRIPOS>BOND
   1    1    2 ar
   2    1    3 1
   3    1   16 ar
   4    2   13 ar
   5    2   25 1
   6    3    4 1
   7    3   26 1
   8    3   27 1
   9    4    5 1
  10    4    6 2
  11    5    9 am
  12    5   28 1
  13    6    7 1
  14    7    8 2
  15    7   10 1
  16    8    9 1
  17    8   23 1
  18    9   12 2
  19   10   11 1
  20   10   29 1
  21   11   18 1
  22   11   22 1
  23   11   30 1
  24   13   14 ar
  25   13   17 1
  26   14   15 ar
  27   14   31 1
  28   15   16 ar
  29   15   32 1
  30   16   33 1
  31   18   19 1
  32   18   34 1
  33   18   35 1
  34   19   20 1
  35   19   36 1
  36   19   37 1
  37   20   21 1
  38   20   38 1
  39   20   39 1
  40   21   22 1
  41   21   40 1
  42   21   41 1
  43   22   42 1
  44   22   43 1
  45   23   24 3

#	End of record

