#	Name: ASD03092946
#	Creating user name:	WinNT
#	Creation time:	15. 06. 2019 20:33

#	Modifying user name:	WinNT
#	Modification time:	15. 06. 2019 20:33

#	Program:	/corina/corina34_cracker 3.40 0067  02.08.2006

@<TRIPOS>MOLECULE
ASD03092946
  51   54    0    0    0
SMALL
NO_CHARGES


@<TRIPOS>ATOM
   1 F1             0.0269    -0.0058     0.0255 F       
   2 C2             0.0060     1.3450     0.0309 C.ar    
   3 C3            -1.2061     2.0167     0.0557 C.ar    
   4 C4            -1.2331     3.3955     0.0619 C.ar    
   5 C5            -0.0368     4.1146     0.0431 C.ar    
   6 C6             1.1812     3.4329     0.0181 C.ar    
   7 C7             1.1968     2.0540     0.0175 C.ar    
   8 C8            -0.0596     5.5923     0.0490 C.2     
   9 O9            -1.1472     6.3840     0.0775 O.3     
  10 N10           -0.8427     7.5539     0.0754 N.2     
  11 C11            0.4491     7.7210     0.0462 C.2     
  12 C12            1.1874     9.0347     0.0354 C.3     
  13 C13            0.7812     9.8377    -1.2025 C.3     
  14 C14            1.5592    11.1571    -1.2283 C.3     
  15 N15            1.3424    11.8589     0.0442 N.am    
  16 C16            1.6156    11.1461     1.2996 C.3     
  17 C17            0.8369     9.8269     1.2971 C.3     
  18 C18            0.9017    13.1325     0.0595 C.2     
  19 O19            0.7696    13.7427    -0.9838 O.2     
  20 N20            0.6074    13.7297     1.2313 N.am    
  21 C21            0.2365    15.1467     1.2585 C.3     
  22 C22           -1.2648    15.2886     0.9896 C.3     
  23 C23           -1.6574    16.7644     1.0978 C.3     
  24 O24           -1.3062    17.2556     2.3930 O.3     
  25 C25            0.0919    17.1919     2.6818 C.3     
  26 C26            0.5548    15.7333     2.6373 C.3     
  27 C27            1.0218     6.4319     0.0328 C.2     
  28 Cl28           2.7051     6.0087     0.0005 Cl      
  29 H29           -2.1310     1.4594     0.0699 H       
  30 H30           -2.1782     3.9179     0.0808 H       
  31 H31            2.1097     3.9845     0.0035 H       
  32 H32            2.1386     1.5256     0.0027 H       
  33 H33            2.2609     8.8477     0.0105 H       
  34 H34            1.0097     9.2630    -2.1000 H       
  35 H35           -0.2880    10.0465    -1.1659 H       
  36 H36            2.6221    10.9520    -1.3560 H       
  37 H37            1.2027    11.7754    -2.0520 H       
  38 H38            2.6831    10.9402     1.3780 H       
  39 H39            1.2963    11.7573     2.1437 H       
  40 H40           -0.2328    10.0358     1.3100 H       
  41 H41            1.1051     9.2445     2.1785 H       
  42 H42            0.6412    13.2213     2.0567 H       
  43 H43            0.7976    15.6852     0.4948 H       
  44 H44           -1.4915    14.9239    -0.0122 H       
  45 H45           -1.8229    14.7084     1.7245 H       
  46 H46           -1.1293    17.3378     0.3360 H       
  47 H47           -2.7325    16.8663     0.9496 H       
  48 H48            0.6429    17.7709     1.9408 H       
  49 H49            0.2770    17.6018     3.6747 H       
  50 H50            0.0334    15.1621     3.4054 H       
  51 H51            1.6294    15.6866     2.8137 H       
@<TRIPOS>BOND
   1    1    2 1
   2    2    7 ar
   3    2    3 ar
   4    3    4 ar
   5    3   29 1
   6    4    5 ar
   7    4   30 1
   8    5    6 ar
   9    5    8 1
  10    6    7 ar
  11    6   31 1
  12    7   32 1
  13    8   27 2
  14    8    9 1
  15    9   10 1
  16   10   11 2
  17   11   12 1
  18   11   27 1
  19   12   17 1
  20   12   13 1
  21   12   33 1
  22   13   14 1
  23   13   34 1
  24   13   35 1
  25   14   15 1
  26   14   36 1
  27   14   37 1
  28   15   16 1
  29   15   18 am
  30   16   17 1
  31   16   38 1
  32   16   39 1
  33   17   40 1
  34   17   41 1
  35   18   19 2
  36   18   20 am
  37   20   21 1
  38   20   42 1
  39   21   26 1
  40   21   22 1
  41   21   43 1
  42   22   23 1
  43   22   44 1
  44   22   45 1
  45   23   24 1
  46   23   46 1
  47   23   47 1
  48   24   25 1
  49   25   26 1
  50   25   48 1
  51   25   49 1
  52   26   50 1
  53   26   51 1
  54   27   28 1

#	End of record

