#	Name: ASD04910181
#	Creating user name:	WinNT
#	Creation time:	15. 06. 2019 20:55

#	Modifying user name:	WinNT
#	Modification time:	15. 06. 2019 20:55

#	Program:	/corina/corina34_cracker 3.40 0067  02.08.2006

@<TRIPOS>MOLECULE
ASD04910181
  32   34    0    0    0
SMALL
NO_CHARGES


@<TRIPOS>ATOM
   1 N1             0.0189     1.4485     0.0099 N.pl3   
   2 N2             0.2528     0.3105     0.7927 N.2     
   3 C3             1.4428    -0.1494     0.5006 C.2     
   4 C4             2.0051     0.6794    -0.4763 C.2     
   5 C5             1.1106     1.6540    -0.7611 C.2     
   6 C6             3.3669     0.5159    -1.1009 C.3     
   7 C7             4.5809     0.5630    -0.1709 C.3     
   8 C8             4.1393    -0.7666    -0.7856 C.3     
   9 C9            -1.1437     2.2321     0.0199 C.ar    
  10 C10           -2.3896     1.6292    -0.0886 C.ar    
  11 C11           -3.5333     2.4033    -0.0786 C.ar    
  12 C12           -3.4382     3.7786     0.0394 C.ar    
  13 C13           -2.1977     4.3819     0.1476 C.ar    
  14 C14           -1.0513     3.6118     0.1439 C.ar    
  15 C15            0.2991     4.2690     0.2686 C.3     
  16 C16           -2.4939     0.1313    -0.2177 C.3     
  17 Br17          -5.0062     4.8355     0.0521 Br      
  18 H18            1.9105    -1.0187     0.9388 H       
  19 H19            1.2443     2.4523    -1.4761 H       
  20 H20            3.4805     0.9399    -2.0986 H       
  21 H21            5.4932     1.0176    -0.5569 H       
  22 H22            4.3946     0.7123     0.8927 H       
  23 H23            3.6625    -1.4921    -0.1265 H       
  24 H24            4.7612    -1.1868    -1.5761 H       
  25 H25           -4.5027     1.9348    -0.1634 H       
  26 H26           -2.1262     5.4556     0.2393 H       
  27 H27            0.7183     4.4293    -0.7247 H       
  28 H28            0.1912     5.2275     0.7764 H       
  29 H29            0.9645     3.6257     0.8443 H       
  30 H30           -2.4726    -0.3211     0.7737 H       
  31 H31           -3.4291    -0.1263    -0.7147 H       
  32 H32           -1.6553    -0.2420    -0.8055 H       
@<TRIPOS>BOND
   1    1    2 1
   2    1    5 1
   3    1    9 1
   4    2    3 2
   5    3    4 1
   6    3   18 1
   7    4    5 2
   8    4    6 1
   9    5   19 1
  10    6    7 1
  11    6    8 1
  12    6   20 1
  13    7    8 1
  14    7   21 1
  15    7   22 1
  16    8   23 1
  17    8   24 1
  18    9   10 ar
  19    9   14 ar
  20   10   11 ar
  21   10   16 1
  22   11   12 ar
  23   11   25 1
  24   12   13 ar
  25   12   17 1
  26   13   14 ar
  27   13   26 1
  28   14   15 1
  29   15   27 1
  30   15   28 1
  31   15   29 1
  32   16   30 1
  33   16   31 1
  34   16   32 1

#	End of record

