#	Name: ASD01410740
#	Creating user name:	WinNT
#	Creation time:	15. 06. 2019 19:18

#	Modifying user name:	WinNT
#	Modification time:	15. 06. 2019 19:18

#	Program:	/corina/corina34_cracker 3.40 0067  02.08.2006

@<TRIPOS>MOLECULE
ASD01410740
 115  121    0    0    0
SMALL
NO_CHARGES


@<TRIPOS>ATOM
   1 N1            -2.4951     4.6693     0.4964 N.am    
   2 C2             0.6307     6.5132    -0.5566 C.3     
   3 C3            -0.7519     5.8398    -0.7183 C.3     
   4 N4            -1.7031     6.9629    -0.7801 N.am    
   5 C5            -0.9988     8.1398    -1.3036 C.3     
   6 C6             0.4822     7.7432    -1.4883 C.3     
   7 O7             0.8505     6.9161     0.7967 O.3     
   8 C8            -1.5905     8.5435    -2.6295 C.2     
   9 O9            -2.5136     7.9123    -3.0989 O.2     
  10 N10           -1.0938     9.6059    -3.2936 N.am    
  11 C11           -1.0720     5.0288     0.5422 C.3     
  12 C12           -3.5201     5.6997     0.3455 C.3     
  13 C13           -2.9842     6.9022    -0.3792 C.2     
  14 O14           -3.7229     7.8368    -0.6066 O.2     
  15 C15           -4.6975     5.1231    -0.4432 C.3     
  16 C16           -5.7496     6.2129    -0.6586 C.3     
  17 C17           -1.7442    10.0721    -4.5207 C.3     
  18 C18           -1.6844     9.1222    -5.6892 C.2     
  19 N19           -0.9227     8.0127    -5.6173 N.am    
  20 O20           -2.3217     9.3563    -6.6941 O.2     
  21 S21           -0.7625     7.0312    -6.9415 S.o2    
  22 C22            0.1066     8.0549    -8.1611 C.3     
  23 C23           -3.0021    10.9302    -4.3715 C.3     
  24 C24           -1.6877    11.5705    -4.8248 C.3     
  25 C25            0.3094     7.4683    -9.5596 C.3     
  26 C26           -0.7065     8.5913    -9.3410 C.3     
  27 O27            0.0725     5.9722    -6.4937 O.2     
  28 O28           -2.0983     6.7846    -7.3586 O.2     
  29 C29           -4.1028    10.7586    -5.4202 C.3     
  30 C30           -5.3165    11.6040    -5.0288 C.3     
  31 C31            2.1389     7.0588     1.1951 C.ar    
  32 C32            2.4510     7.4311     2.5235 C.ar    
  33 C33            3.1730     6.8405     0.3229 C.ar    
  34 C34            4.4958     6.9942     0.7595 C.ar    
  35 N35            4.7770     7.3477     2.0024 N.ar    
  36 C36            3.8103     7.5689     2.8988 C.ar    
  37 C37            5.6021     6.7553    -0.1909 C.2     
  38 C38            4.1219     7.9445     4.2164 C.ar    
  39 C39            3.1065     8.1662     5.1185 C.ar    
  40 C40            1.7686     8.0215     4.7386 C.ar    
  41 C41            1.4401     7.6645     3.4671 C.ar    
  42 O42            3.4074     8.5294     6.3923 O.3     
  43 C43            2.3100     8.7452     7.2818 C.3     
  44 N44            6.8708     6.8624     0.0837 N.2     
  45 C45            7.7152     6.6107    -0.8871 C.2     
  46 C46            7.1693     6.2689    -2.0614 C.2     
  47 S47            5.4166     6.2724    -1.8751 S.3     
  48 C48            9.2070     6.7009    -0.6939 C.3     
  49 C49            9.7629     5.3148    -0.3614 C.3     
  50 C50            9.8575     7.2164    -1.9792 C.3     
  51 C51           -4.2034     4.6161    -1.7996 C.3     
  52 C52            5.5596     8.1031     4.6394 C.3     
  53 O53           -1.9200     2.4103     0.5965 O.3     
  54 C54           -2.3848     1.0385     0.6984 C.3     
  55 C55           -3.2932     0.7182    -0.4903 C.3     
  56 C56           -1.1834     0.0911     0.6919 C.3     
  57 C57           -3.1675     0.8606     2.0009 C.3     
  58 C58           -2.8592     3.3749     0.5887 C.2     
  59 O59           -4.0351     3.0786     0.6650 O.2     
  60 H60            1.4291     5.8563    -0.9019 H       
  61 H61           -0.7943     5.2324    -1.6224 H       
  62 H62           -1.0761     8.9640    -0.5944 H       
  63 H63            1.1402     8.5510    -1.1682 H       
  64 H64            0.6815     7.4700    -2.5245 H       
  65 H65           -0.3058    10.0620    -2.9590 H       
  66 H66           -0.8718     5.6304     1.4288 H       
  67 H67           -0.4635     4.1247     0.5638 H       
  68 H68           -3.8682     6.0038     1.3327 H       
  69 H69           -5.1389     4.2971     0.1146 H       
  70 H70           -5.3083     7.0388    -1.2163 H       
  71 H71           -6.5885     5.8021    -1.2205 H       
  72 H72           -6.1017     6.5740     0.3077 H       
  73 H73           -0.4684     7.7890    -4.7900 H       
  74 H74            0.8966     8.6916    -7.7630 H       
  75 H75           -3.3458    11.1478    -3.3602 H       
  76 H76           -1.1670    12.2096    -4.1117 H       
  77 H77           -1.6077    11.8694    -5.8700 H       
  78 H78            1.2327     7.7195   -10.0816 H       
  79 H79           -0.0793     6.4673    -9.7468 H       
  80 H80           -1.7636     8.3291    -9.3844 H       
  81 H81           -0.4516     9.5812    -9.7192 H       
  82 H82           -3.7322    11.0833    -6.3925 H       
  83 H83           -4.3931     9.7093    -5.4740 H       
  84 H84           -6.1007    11.4817    -5.7760 H       
  85 H85           -5.6872    11.2792    -4.0566 H       
  86 H86           -5.0263    12.6533    -4.9750 H       
  87 H87            2.9694     6.5507    -0.6973 H       
  88 H88            0.9865     8.1998     5.4617 H       
  89 H89            0.4028     7.5562     3.1865 H       
  90 H90            1.7268     7.8284     7.3686 H       
  91 H91            2.6886     9.0294     8.2636 H       
  92 H92            1.6775     9.5426     6.8916 H       
  93 H93            7.7097     6.0291    -2.9652 H       
  94 H94            9.4266     7.3864     0.1246 H       
  95 H95           10.8420     5.3800    -0.2217 H       
  96 H96            9.2995     4.9475     0.5542 H       
  97 H97            9.5434     4.6293    -1.1800 H       
  98 H98            9.4615     8.2039    -2.2161 H       
  99 H99           10.9365     7.2817    -1.8395 H       
 100 H100           9.6379     6.5310    -2.7978 H       
 101 H101          -3.4538     3.8397    -1.6461 H       
 102 H102          -5.0422     4.2054    -2.3615 H       
 103 H103          -3.7620     5.4421    -2.3573 H       
 104 H104           5.8781     9.1310     4.4659 H       
 105 H105           5.6546     7.8672     5.6993 H       
 106 H106           6.1859     7.4257     4.0589 H       
 107 H107          -2.7356     0.8449    -1.4183 H       
 108 H108          -3.6422    -0.3116    -0.4138 H       
 109 H109          -4.1491     1.3931    -0.4857 H       
 110 H110          -0.5362     0.3193     1.5387 H       
 111 H111          -1.5323    -0.9387     0.7684 H       
 112 H112          -0.6258     0.2178    -0.2361 H       
 113 H113          -4.0234     1.5355     2.0055 H       
 114 H114          -3.5164    -0.1692     2.0774 H       
 115 H115          -2.5203     1.0888     2.8478 H       
@<TRIPOS>BOND
   1    1   58 am
   2    1   11 1
   3    1   12 1
   4    2    3 1
   5    2    7 1
   6    2    6 1
   7    2   60 1
   8    3    4 1
   9    3   11 1
  10    3   61 1
  11    4    5 1
  12    4   13 am
  13    5    6 1
  14    5    8 1
  15    5   62 1
  16    6   63 1
  17    6   64 1
  18    7   31 1
  19    8    9 2
  20    8   10 am
  21   10   17 1
  22   10   65 1
  23   11   66 1
  24   11   67 1
  25   12   13 1
  26   12   15 1
  27   12   68 1
  28   13   14 2
  29   15   16 1
  30   15   51 1
  31   15   69 1
  32   16   70 1
  33   16   71 1
  34   16   72 1
  35   17   18 1
  36   17   23 1
  37   17   24 1
  38   18   19 am
  39   18   20 2
  40   19   21 am
  41   19   73 1
  42   21   22 1
  43   21   27 2
  44   21   28 2
  45   22   25 1
  46   22   26 1
  47   22   74 1
  48   23   24 1
  49   23   29 1
  50   23   75 1
  51   24   76 1
  52   24   77 1
  53   25   26 1
  54   25   78 1
  55   25   79 1
  56   26   80 1
  57   26   81 1
  58   29   30 1
  59   29   82 1
  60   29   83 1
  61   30   84 1
  62   30   85 1
  63   30   86 1
  64   31   32 ar
  65   31   33 ar
  66   32   36 ar
  67   32   41 ar
  68   33   34 ar
  69   33   87 1
  70   34   35 ar
  71   34   37 1
  72   35   36 ar
  73   36   38 ar
  74   37   44 2
  75   37   47 1
  76   38   39 ar
  77   38   52 1
  78   39   40 ar
  79   39   42 1
  80   40   41 ar
  81   40   88 1
  82   41   89 1
  83   42   43 1
  84   43   90 1
  85   43   91 1
  86   43   92 1
  87   44   45 1
  88   45   46 2
  89   45   48 1
  90   46   47 1
  91   46   93 1
  92   48   49 1
  93   48   50 1
  94   48   94 1
  95   49   95 1
  96   49   96 1
  97   49   97 1
  98   50   98 1
  99   50   99 1
 100   50  100 1
 101   51  101 1
 102   51  102 1
 103   51  103 1
 104   52  104 1
 105   52  105 1
 106   52  106 1
 107   53   54 1
 108   53   58 1
 109   54   55 1
 110   54   56 1
 111   54   57 1
 112   55  107 1
 113   55  108 1
 114   55  109 1
 115   56  110 1
 116   56  111 1
 117   56  112 1
 118   57  113 1
 119   57  114 1
 120   57  115 1
 121   58   59 2

#	End of record

