#	Name: ASD05503044
#	Creating user name:	WinNT
#	Creation time:	15. 06. 2019 21:01

#	Modifying user name:	WinNT
#	Modification time:	15. 06. 2019 21:01

#	Program:	/corina/corina34_cracker 3.40 0067  02.08.2006

@<TRIPOS>MOLECULE
ASD05503044
  39   40    0    0    0
SMALL
NO_CHARGES


@<TRIPOS>ATOM
   1 C1            -0.1245     1.2208    -0.1405 C.ar    
   2 C2            -0.1341    -0.1626    -0.0194 C.ar    
   3 C3             1.0631    -0.8592     0.0811 C.ar    
   4 C4             2.2627    -0.1766     0.0600 C.ar    
   5 C5             2.2724     1.2069    -0.0616 C.ar    
   6 C6             1.0750     1.9036    -0.1615 C.ar    
   7 N7            -1.3514    -0.8553     0.0020 N.am    
   8 C8            -1.4332    -2.0905    -0.5309 C.2     
   9 O9            -0.4807    -2.5639    -1.1138 O.2     
  10 C10           -2.7082    -2.8836    -0.4025 C.3     
  11 C11           -2.5362    -4.2403    -1.0886 C.3     
  12 C12           -3.8307    -5.0454    -0.9582 C.3     
  13 N13            3.4890     1.8993    -0.0825 N.am    
  14 C14            4.5769     1.3334    -0.6417 C.2     
  15 C15            5.8860     2.0143    -0.5644 C.ar    
  16 O16            4.4811     0.2628    -1.2097 O.2     
  17 C17            7.0156     1.4307    -1.1429 C.ar    
  18 C18            8.2357     2.0733    -1.0670 C.ar    
  19 C19            8.3399     3.2912    -0.4204 C.ar    
  20 C20            7.2243     3.8744     0.1552 C.ar    
  21 C21            5.9985     3.2467     0.0821 C.ar    
  22 Br22           6.8747    -0.2349    -2.0269 Br      
  23 H23           -1.0554     1.7621    -0.2228 H       
  24 H24            1.0555    -1.9350     0.1760 H       
  25 H25            3.1937    -0.7184     0.1385 H       
  26 H26            1.0825     2.9794    -0.2564 H       
  27 H27           -2.1354    -0.4460     0.4003 H       
  28 H28           -2.9365    -3.0362     0.6523 H       
  29 H29           -3.5246    -2.3380    -0.8757 H       
  30 H30           -2.3079    -4.0877    -2.1434 H       
  31 H31           -1.7198    -4.7858    -0.6154 H       
  32 H32           -4.0590    -5.1981     0.0966 H       
  33 H33           -4.6471    -4.4999    -1.4314 H       
  34 H34           -3.7082    -6.0120    -1.4470 H       
  35 H35            3.5490     2.7863     0.3055 H       
  36 H36            9.1103     1.6236    -1.5133 H       
  37 H37            9.2964     3.7896    -0.3638 H       
  38 H38            7.3132     4.8256     0.6589 H       
  39 H39            5.1291     3.7034     0.5315 H       
@<TRIPOS>BOND
   1    1    2 ar
   2    1    6 ar
   3    1   23 1
   4    2    3 ar
   5    2    7 1
   6    3    4 ar
   7    3   24 1
   8    4    5 ar
   9    4   25 1
  10    5    6 ar
  11    5   13 1
  12    6   26 1
  13    7    8 am
  14    7   27 1
  15    8    9 2
  16    8   10 1
  17   10   11 1
  18   10   28 1
  19   10   29 1
  20   11   12 1
  21   11   30 1
  22   11   31 1
  23   12   32 1
  24   12   33 1
  25   12   34 1
  26   13   14 am
  27   13   35 1
  28   14   15 1
  29   14   16 2
  30   15   17 ar
  31   15   21 ar
  32   17   18 ar
  33   17   22 1
  34   18   19 ar
  35   18   36 1
  36   19   20 ar
  37   19   37 1
  38   20   21 ar
  39   20   38 1
  40   21   39 1

#	End of record

