#	Name: ASD01140305
#	Creating user name:	WinNT
#	Creation time:	15. 06. 2019 19:00

#	Modifying user name:	WinNT
#	Modification time:	15. 06. 2019 19:00

#	Program:	/corina/corina34_cracker 3.40 0067  02.08.2006

@<TRIPOS>MOLECULE
ASD01140305
  17   17    0    0    0
SMALL
NO_CHARGES


@<TRIPOS>ATOM
   1 C1            -0.0168     1.3904     0.0097 C.ar    
   2 C2             0.0021    -0.0041     0.0020 C.ar    
   3 C3             1.2079    -0.6748    -0.0131 C.ar    
   4 C4             2.3964     0.0332    -0.0202 C.ar    
   5 C5             2.3841     1.4165    -0.0122 C.ar    
   6 C6             1.1846     2.0985     0.0020 C.ar    
   7 C7            -1.3075     2.1163     0.0198 C.2     
   8 N8            -1.3230     3.4940     0.0273 N.pl3   
   9 N9            -2.4280     1.4524     0.0215 N.2     
  10 H10           -0.9251    -0.5578     0.0083 H       
  11 H11            1.2238    -1.7547    -0.0190 H       
  12 H12            3.3376    -0.4962    -0.0317 H       
  13 H13            3.3151     1.9637    -0.0174 H       
  14 H14            1.1762     3.1784     0.0075 H       
  15 H15           -0.4885     3.9884     0.0260 H       
  16 H16           -2.1685     3.9695     0.0339 H       
  17 H17           -3.2734     1.9279     0.0281 H       
@<TRIPOS>BOND
   1    1    2 ar
   2    1    6 ar
   3    1    7 1
   4    2    3 ar
   5    2   10 1
   6    3    4 ar
   7    3   11 1
   8    4    5 ar
   9    4   12 1
  10    5    6 ar
  11    5   13 1
  12    6   14 1
  13    7    8 1
  14    7    9 2
  15    8   15 1
  16    8   16 1
  17    9   17 1

#	End of record

