#	Name: ASD00360022
#	Creating user name:	WinNT
#	Creation time:	15. 06. 2019 18:35

#	Modifying user name:	WinNT
#	Modification time:	15. 06. 2019 18:35

#	Program:	/corina/corina34_cracker 3.40 0067  02.08.2006

@<TRIPOS>MOLECULE
ASD00360022
  31   33    0    0    0
SMALL
NO_CHARGES


@<TRIPOS>ATOM
   1 C1            -0.0167     1.3800     0.0096 C.ar    
   2 C2             0.0021    -0.0041     0.0020 C.ar    
   3 C3             1.2162    -0.6749    -0.0159 C.ar    
   4 C4             2.4132     0.0328    -0.0308 C.ar    
   5 C5             2.4130     1.4151    -0.0270 C.ar    
   6 C6             1.1916     2.0922     0.0019 C.ar    
   7 C7             1.1764     3.5665     0.0381 C.2     
   8 C8             3.7243     2.1394    -0.0691 C.3     
   9 C9             3.6381     3.5704     0.3676 C.ar    
  10 C10            2.4263     4.2594     0.4130 C.ar    
  11 C11            2.3891     5.6005     0.8145 C.ar    
  12 C12            4.7985     4.2300     0.7327 C.ar    
  13 C13            4.7612     5.5538     1.1326 C.ar    
  14 C14            3.5657     6.2427     1.1719 C.ar    
  15 O15            1.2359    -2.0320    -0.0184 O.3     
  16 O16            0.1681     4.1914    -0.2322 O.2     
  17 O17            1.2089     6.2681     0.8535 O.3     
  18 O18           -1.1992     2.0450     0.0189 O.3     
  19 C19            6.0381     6.2511     1.5256 C.3     
  20 Cl20           3.9210    -0.8273    -0.0538 Cl      
  21 H21           -0.9243    -0.5592     0.0103 H       
  22 H22            4.4301     1.6197     0.5789 H       
  23 H23            4.1060     2.1093    -1.0896 H       
  24 H24            5.7426     3.7062     0.7050 H       
  25 H25            3.5463     7.2771     1.4817 H       
  26 H26            1.2295    -2.4238    -0.9024 H       
  27 H27            0.7505     6.2076     1.7028 H       
  28 H28           -1.5378     2.2330     0.9049 H       
  29 H29            6.4830     6.7172     0.6464 H       
  30 H30            5.8199     7.0158     2.2711 H       
  31 H31            6.7350     5.5246     1.9435 H       
@<TRIPOS>BOND
   1    1    2 ar
   2    1    6 ar
   3    1   18 1
   4    2    3 ar
   5    2   21 1
   6    3    4 ar
   7    3   15 1
   8    4    5 ar
   9    4   20 1
  10    5    6 ar
  11    5    8 1
  12    6    7 1
  13    7   10 1
  14    7   16 2
  15    8    9 1
  16    8   22 1
  17    8   23 1
  18    9   12 ar
  19    9   10 ar
  20   10   11 ar
  21   11   14 ar
  22   11   17 1
  23   12   13 ar
  24   12   24 1
  25   13   14 ar
  26   13   19 1
  27   14   25 1
  28   15   26 1
  29   17   27 1
  30   18   28 1
  31   19   29 1
  32   19   30 1
  33   19   31 1

#	End of record

