#	Name: ASD02560249
#	Creating user name:	WinNT
#	Creation time:	15. 06. 2019 20:24

#	Modifying user name:	WinNT
#	Modification time:	15. 06. 2019 20:24

#	Program:	/corina/corina34_cracker 3.40 0067  02.08.2006

@<TRIPOS>MOLECULE
ASD02560249
  43   45    0    0    0
SMALL
NO_CHARGES


@<TRIPOS>ATOM
   1 N1             0.0291     1.2813     0.3711 N.2     
   2 N2             0.0478    -0.0051     0.3702 N.2     
   3 C3             1.2551    -0.4210     0.0746 C.2     
   4 O4             2.0182     0.6713    -0.1161 O.3     
   5 C5             1.2132     1.7339     0.0788 C.2     
   6 C6             1.6120     3.1836    -0.0234 C.3     
   7 N7             1.6684    -1.7378    -0.0228 N.pl3   
   8 C8             0.7355    -2.7729     0.0860 C.ar    
   9 C9            -0.5810    -2.5677    -0.3069 C.ar    
  10 C10           -1.5002    -3.5926    -0.1980 C.ar    
  11 C11           -1.1113    -4.8222     0.3015 C.ar    
  12 C12            0.1985    -5.0298     0.6935 C.ar    
  13 C13            1.1241    -4.0110     0.5819 C.ar    
  14 C14            2.0841     3.6708     1.3223 C.ar    
  15 C15            3.4195     3.5664     1.6640 C.ar    
  16 C16            3.8552     4.0139     2.9009 C.ar    
  17 C17            2.9458     4.5677     3.7968 C.ar    
  18 C18            1.6086     4.6694     3.4481 C.ar    
  19 C19            1.1816     4.2262     2.2102 C.ar    
  20 C20           -2.1172    -5.9381     0.4193 C.3     
  21 O21            3.3685     5.0079     5.0122 O.3     
  22 C22            2.3795     5.5648     5.8804 C.3     
  23 O23            5.1685     3.9116     3.2387 O.3     
  24 C24            6.0445     3.3322     2.2696 C.3     
  25 H25            2.4170     3.2886    -0.7507 H       
  26 H26            0.7539     3.7748    -0.3433 H       
  27 H27            2.6056    -1.9426    -0.1666 H       
  28 H28           -0.8855    -1.6077    -0.6967 H       
  29 H29           -2.5240    -3.4337    -0.5029 H       
  30 H30            0.4990    -5.9912     1.0831 H       
  31 H31            2.1469    -4.1738     0.8883 H       
  32 H32            4.1232     3.1359     0.9669 H       
  33 H33            0.9008     5.0988     4.1417 H       
  34 H34            0.1391     4.3059     1.9396 H       
  35 H35           -2.1250    -6.5190    -0.5029 H       
  36 H36           -1.8463    -6.5848     1.2538 H       
  37 H37           -3.1078    -5.5175     0.5922 H       
  38 H38            2.8489     5.8757     6.8137 H       
  39 H39            1.9191     6.4282     5.4001 H       
  40 H40            1.6161     4.8154     6.0895 H       
  41 H41            7.0601     3.3104     2.6648 H       
  42 H42            5.7192     2.3159     2.0475 H       
  43 H43            6.0223     3.9284     1.3574 H       
@<TRIPOS>BOND
   1    1    2 1
   2    1    5 2
   3    2    3 2
   4    3    4 1
   5    3    7 1
   6    4    5 1
   7    5    6 1
   8    6   14 1
   9    6   25 1
  10    6   26 1
  11    7    8 1
  12    7   27 1
  13    8    9 ar
  14    8   13 ar
  15    9   10 ar
  16    9   28 1
  17   10   11 ar
  18   10   29 1
  19   11   12 ar
  20   11   20 1
  21   12   13 ar
  22   12   30 1
  23   13   31 1
  24   14   15 ar
  25   14   19 ar
  26   15   16 ar
  27   15   32 1
  28   16   17 ar
  29   16   23 1
  30   17   18 ar
  31   17   21 1
  32   18   19 ar
  33   18   33 1
  34   19   34 1
  35   20   35 1
  36   20   36 1
  37   20   37 1
  38   21   22 1
  39   22   38 1
  40   22   39 1
  41   22   40 1
  42   23   24 1
  43   24   41 1
  44   24   42 1
  45   24   43 1

#	End of record

