#	Name: ASD06152003
#	Creating user name:	WinNT
#	Creation time:	15. 06. 2019 21:05

#	Modifying user name:	WinNT
#	Modification time:	15. 06. 2019 21:05

#	Program:	/corina/corina34_cracker 3.40 0067  02.08.2006

@<TRIPOS>MOLECULE
ASD06152003
  86   91    0    0    0
SMALL
NO_CHARGES


@<TRIPOS>ATOM
   1 C1            -0.1115     1.5476    -1.7000 C.3     
   2 C2             0.0046     0.2837    -0.8347 C.3     
   3 C3             0.3712    -0.9888    -1.5850 C.3     
   4 C4            -0.5042    -1.1362    -2.8154 C.3     
   5 C5            -0.3226     0.0687    -3.7347 C.3     
   6 C6            -0.8631     1.3051    -3.0060 C.3     
   7 C7            -0.9674     2.5134    -0.8301 C.3     
   8 C8            -1.7300     1.6316     0.1776 C.3     
   9 C9            -1.3932     0.1672    -0.1941 C.3     
  10 C10            1.2500     2.2052    -1.9702 C.3     
  11 C11           -0.7123     2.5173    -3.9299 C.3     
  12 O12            0.9716     0.4989     0.1937 O.3     
  13 C13            1.8604    -0.9136    -1.9144 C.3     
  14 C14            0.1549    -2.1906    -0.6521 C.3     
  15 C15            0.4302    -3.4922    -1.4050 C.3     
  16 C16           -0.5379    -3.6130    -2.5742 C.3     
  17 C17           -0.3688    -2.4542    -3.5585 C.3     
  18 C18           -0.3749    -4.9480    -3.2913 C.3     
  19 C19           -1.4657    -5.0806    -4.3543 C.3     
  20 C20           -1.4319    -3.9023    -5.3212 C.3     
  21 C21           -1.5191    -2.5762    -4.5763 C.3     
  22 C22           -0.0822     3.4887    -0.0977 C.2     
  23 C23            0.2824     3.4221     1.1801 C.2     
  24 C24            1.1465     4.5607     1.5028 C.2     
  25 O25            1.3141     5.3334     0.4133 O.3     
  26 C26            0.5658     4.7248    -0.6764 C.3     
  27 O27            1.6386     4.7761     2.5930 O.2     
  28 C28            0.9439    -2.5583    -4.3209 C.3     
  29 O29           -1.2618    -6.2943    -5.0874 O.3     
  30 C30           -2.4650    -6.8789    -5.5900 C.3     
  31 C31           -2.1196    -8.0931    -6.4560 C.3     
  32 C32           -1.4181    -9.1447    -5.5909 C.3     
  33 C33           -2.3271    -9.5101    -4.4134 C.3     
  34 C34           -2.6644    -8.2412    -3.6262 C.3     
  35 O35           -3.2863    -7.2935    -4.4965 O.3     
  36 C36           -3.6207    -8.5887    -2.4835 C.3     
  37 O37           -1.1576   -10.3114    -6.3738 O.3     
  38 O38           -3.5315   -10.1012    -4.9054 O.3     
  39 H39           -1.5672    -1.0939    -2.4565 H       
  40 H40            0.7170     0.2304    -3.9963 H       
  41 H41           -0.9046    -0.0704    -4.6528 H       
  42 H42           -1.9170     1.1493    -2.7896 H       
  43 H43           -1.6866     3.0480    -1.4520 H       
  44 H44           -1.3927     1.8439     1.1886 H       
  45 H45           -2.8043     1.8025     0.1033 H       
  46 H46           -2.1171    -0.2222    -0.9038 H       
  47 H47           -1.3535    -0.4584     0.6994 H       
  48 H48            1.8739     1.5242    -2.5492 H       
  49 H49            1.1028     3.1284    -2.5306 H       
  50 H50            1.7396     2.4296    -1.0225 H       
  51 H51           -1.2779     2.3483    -4.8462 H       
  52 H52           -1.0922     3.4067    -3.4272 H       
  53 H53            0.3405     2.6595    -4.1738 H       
  54 H54            0.7847     1.2634     0.7556 H       
  55 H55            2.4177    -0.6436    -1.0174 H       
  56 H56            2.2019    -1.8835    -2.2761 H       
  57 H57            2.0246    -0.1602    -2.6848 H       
  58 H58            0.8341    -2.1072     0.1962 H       
  59 H59           -0.8799    -2.1873    -0.2977 H       
  60 H60            1.4582    -3.5358    -1.7473 H       
  61 H61            0.2605    -4.3297    -0.7157 H       
  62 H62           -1.5677    -3.5718    -2.1759 H       
  63 H63            0.6011    -5.0384    -3.7561 H       
  64 H64           -0.4869    -5.7676    -2.5693 H       
  65 H65           -2.4414    -5.1374    -3.8726 H       
  66 H66           -0.5369    -3.9526    -5.9382 H       
  67 H67           -2.2975    -3.9848    -5.9978 H       
  68 H68           -2.4701    -2.5130    -4.0475 H       
  69 H69           -1.4500    -1.7572    -5.2896 H       
  70 H70           -0.0134     2.6483     1.8730 H       
  71 H71            1.2393     4.4562    -1.4903 H       
  72 H72           -0.2013     5.4115    -1.0344 H       
  73 H73            0.9067    -3.4157    -4.9929 H       
  74 H74            1.1003    -1.6487    -4.9008 H       
  75 H75            1.7649    -2.6850    -3.6153 H       
  76 H76           -3.0023    -6.1450    -6.1906 H       
  77 H77           -3.0341    -8.5154    -6.8726 H       
  78 H78           -1.4571    -7.7866    -7.2655 H       
  79 H79           -0.4788    -8.7394    -5.2144 H       
  80 H80           -1.8130   -10.2169    -3.7621 H       
  81 H81           -1.7493    -7.8131    -3.2172 H       
  82 H82           -3.1466    -9.3122    -1.8204 H       
  83 H83           -3.8607    -7.6851    -1.9232 H       
  84 H84           -4.5359    -9.0162    -2.8929 H       
  85 H85           -0.5923   -10.1515    -7.1419 H       
  86 H86           -4.1552   -10.3580    -4.2125 H       
@<TRIPOS>BOND
   1    1    2 1
   2    1   10 1
   3    1    6 1
   4    1    7 1
   5    2    3 1
   6    2   12 1
   7    2    9 1
   8    3    4 1
   9    3   13 1
  10    3   14 1
  11    4    5 1
  12    4   17 1
  13    4   39 1
  14    5    6 1
  15    5   40 1
  16    5   41 1
  17    6   11 1
  18    6   42 1
  19    7    8 1
  20    7   22 1
  21    7   43 1
  22    8    9 1
  23    8   44 1
  24    8   45 1
  25    9   46 1
  26    9   47 1
  27   10   48 1
  28   10   49 1
  29   10   50 1
  30   11   51 1
  31   11   52 1
  32   11   53 1
  33   12   54 1
  34   13   55 1
  35   13   56 1
  36   13   57 1
  37   14   15 1
  38   14   58 1
  39   14   59 1
  40   15   16 1
  41   15   60 1
  42   15   61 1
  43   16   17 1
  44   16   18 1
  45   16   62 1
  46   17   28 1
  47   17   21 1
  48   18   19 1
  49   18   63 1
  50   18   64 1
  51   19   20 1
  52   19   29 1
  53   19   65 1
  54   20   21 1
  55   20   66 1
  56   20   67 1
  57   21   68 1
  58   21   69 1
  59   22   23 2
  60   22   26 1
  61   23   24 1
  62   23   70 1
  63   24   25 1
  64   24   27 2
  65   25   26 1
  66   26   71 1
  67   26   72 1
  68   28   73 1
  69   28   74 1
  70   28   75 1
  71   29   30 1
  72   30   31 1
  73   30   35 1
  74   30   76 1
  75   31   32 1
  76   31   77 1
  77   31   78 1
  78   32   33 1
  79   32   37 1
  80   32   79 1
  81   33   34 1
  82   33   38 1
  83   33   80 1
  84   34   35 1
  85   34   36 1
  86   34   81 1
  87   36   82 1
  88   36   83 1
  89   36   84 1
  90   37   85 1
  91   38   86 1

#	End of record

