#	Name: ASD01880804
#	Creating user name:	WinNT
#	Creation time:	15. 06. 2019 19:41

#	Modifying user name:	WinNT
#	Modification time:	15. 06. 2019 19:41

#	Program:	/corina/corina34_cracker 3.40 0067  02.08.2006

@<TRIPOS>MOLECULE
ASD01880804
  51   53    0    0    0
SMALL
NO_CHARGES


@<TRIPOS>ATOM
   1 N1            -0.0158     1.3135     0.0093 N.ar    
   2 C2             0.0021    -0.0041     0.0020 C.ar    
   3 N3             1.1312    -0.6835    -0.0120 N.ar    
   4 C4             2.3010    -0.0614    -0.0198 C.ar    
   5 C5             2.3294     1.3206    -0.0131 C.ar    
   6 C6             1.1167     2.0074     0.0022 C.ar    
   7 C7             3.6391     2.0661    -0.0211 C.3     
   8 O8             4.0409     2.3085    -1.3708 O.3     
   9 C9             5.2085     2.9750    -1.5558 C.ar    
  10 C10            5.6586     3.2442    -2.8447 C.ar    
  11 C11            6.8396     3.9189    -3.0304 C.ar    
  12 C12            7.5955     4.3385    -1.9307 C.ar    
  13 C13            7.1387     4.0659    -0.6383 C.ar    
  14 C14            5.9508     3.3930    -0.4577 C.ar    
  15 C15            7.5943     4.3610    -4.2593 C.3     
  16 N16            8.8002     5.0432    -3.7763 N.am    
  17 C17            8.7969     5.0279    -2.4323 C.2     
  18 O18            9.6623     5.5143    -1.7303 O.2     
  19 C19           -1.3047    -0.7547     0.0105 C.3     
  20 C20            3.5847    -0.8508    -0.0353 C.3     
  21 C21            7.9428     4.5113     0.5559 C.3     
  22 C22           -0.0164     5.5091     0.0309 C.3     
  23 C23            9.4847     7.1038    -4.9017 C.3     
  24 C24            9.8374     5.6420    -4.6200 C.3     
  25 O25            1.0934     3.3624     0.0092 O.3     
  26 C26           -0.1907     3.9891     0.0249 C.3     
  27 H27            3.5192     3.0167     0.4986 H       
  28 H28            4.3997     1.4698     0.4829 H       
  29 H29            5.0797     2.9226    -3.6978 H       
  30 H30            5.5982     3.1829     0.5413 H       
  31 H31            7.8694     3.4953    -4.8618 H       
  32 H32            6.9848     5.0482    -4.8463 H       
  33 H33           -1.6295    -0.9301    -1.0151 H       
  34 H34           -1.1716    -1.7101     0.5179 H       
  35 H35           -2.0580    -0.1667     0.5347 H       
  36 H36            3.8847    -1.0362    -1.0666 H       
  37 H37            4.3650    -0.2853     0.4741 H       
  38 H38            3.4327    -1.8016     0.4755 H       
  39 H39            7.6286     5.5120     0.8527 H       
  40 H40            7.7800     3.8193     1.3822 H       
  41 H41            9.0014     4.5249     0.2966 H       
  42 H42            0.5269     5.8160    -0.8629 H       
  43 H43           -0.9959     5.9871     0.0428 H       
  44 H44            0.5442     5.8070     0.9170 H       
  45 H45            9.4216     7.6502    -3.9607 H       
  46 H46           10.2564     7.5493    -5.5295 H       
  47 H47            8.5247     7.1534    -5.4157 H       
  48 H48           10.7973     5.5924    -4.1060 H       
  49 H49            9.9005     5.0956    -5.5611 H       
  50 H50           -0.7339     3.6821     0.9187 H       
  51 H51           -0.7513     3.6911    -0.8612 H       
@<TRIPOS>BOND
   1    1    2 ar
   2    1    6 ar
   3    2    3 ar
   4    2   19 1
   5    3    4 ar
   6    4    5 ar
   7    4   20 1
   8    5    6 ar
   9    5    7 1
  10    6   25 1
  11    7    8 1
  12    7   27 1
  13    7   28 1
  14    8    9 1
  15    9   10 ar
  16    9   14 ar
  17   10   11 ar
  18   10   29 1
  19   11   12 ar
  20   11   15 1
  21   12   13 ar
  22   12   17 1
  23   13   14 ar
  24   13   21 1
  25   14   30 1
  26   15   16 1
  27   15   31 1
  28   15   32 1
  29   16   17 am
  30   16   24 1
  31   17   18 2
  32   19   33 1
  33   19   34 1
  34   19   35 1
  35   20   36 1
  36   20   37 1
  37   20   38 1
  38   21   39 1
  39   21   40 1
  40   21   41 1
  41   22   26 1
  42   22   42 1
  43   22   43 1
  44   22   44 1
  45   23   24 1
  46   23   45 1
  47   23   46 1
  48   23   47 1
  49   24   48 1
  50   24   49 1
  51   25   26 1
  52   26   50 1
  53   26   51 1

#	End of record

