#	Name: ASD03430898
#	Creating user name:	WinNT
#	Creation time:	15. 06. 2019 20:41

#	Modifying user name:	WinNT
#	Modification time:	15. 06. 2019 20:41

#	Program:	/corina/corina34_cracker 3.40 0067  02.08.2006

@<TRIPOS>MOLECULE
ASD03430898
  39   43    0    0    0
SMALL
NO_CHARGES


@<TRIPOS>ATOM
   1 O1            -0.0175     1.4361     0.0099 O.3     
   2 C2             0.0021    -0.0041     0.0020 C.3     
   3 C3             1.3467    -0.3164    -0.6680 C.3     
   4 C4             2.1587     0.9238    -0.4064 C.ar    
   5 C5             1.2612     1.9070     0.0003 C.ar    
   6 C6             1.7529     3.1660     0.3219 C.ar    
   7 C7             3.1074     3.4468     0.2305 C.ar    
   8 C8             3.9851     2.4666    -0.1773 C.ar    
   9 C9             3.5019     1.2041    -0.4969 C.ar    
  10 N10            2.1696    -2.4012    -1.1171 N.am    
  11 C11            1.9867    -1.5464    -0.0912 C.2     
  12 C12            1.1944    -0.5974    -2.1334 C.ar    
  13 C13            0.6824     0.1194    -3.1912 C.ar    
  14 C14            0.6851    -0.4250    -4.4635 C.ar    
  15 C15            1.2028    -1.6903    -4.6694 C.ar    
  16 C16            1.7157    -2.4133    -3.6123 C.ar    
  17 C17            1.7158    -1.8742    -2.3286 C.ar    
  18 O18            2.2817    -1.7337     1.0703 O.2     
  19 C19            3.5588     4.8412     0.5809 C.3     
  20 C20            5.4689     2.6998    -0.2891 C.3     
  21 C21            5.7753     4.1956    -0.3319 C.3     
  22 C22            5.0624     4.8684     0.8470 C.3     
  23 H23           -0.0242    -0.3969     1.0184 H       
  24 H24           -0.8250    -0.3989    -0.5879 H       
  25 H25            1.0701     3.9369     0.6474 H       
  26 H26            4.1880     0.4350    -0.8198 H       
  27 H27            2.5698    -3.2800    -1.0250 H       
  28 H28            0.2780     1.1075    -3.0280 H       
  29 H29            0.2834     0.1372    -5.2936 H       
  30 H30            1.2059    -2.1146    -5.6626 H       
  31 H31            2.1180    -3.4013    -3.7809 H       
  32 H32            3.3281     5.5122    -0.2466 H       
  33 H33            3.0298     5.1767     1.4730 H       
  34 H34            5.9686     2.2550     0.5715 H       
  35 H35            5.8388     2.2309    -1.2009 H       
  36 H36            6.8507     4.3526    -0.2487 H       
  37 H37            5.4134     4.6179    -1.2693 H       
  38 H38            5.4001     5.9006     0.9394 H       
  39 H39            5.2821     4.3261     1.7666 H       
@<TRIPOS>BOND
   1    1    2 1
   2    1    5 1
   3    2    3 1
   4    2   23 1
   5    2   24 1
   6    3    4 1
   7    3   11 1
   8    3   12 1
   9    4    5 ar
  10    4    9 ar
  11    5    6 ar
  12    6    7 ar
  13    6   25 1
  14    7    8 ar
  15    7   19 1
  16    8    9 ar
  17    8   20 1
  18    9   26 1
  19   10   11 am
  20   10   17 1
  21   10   27 1
  22   11   18 2
  23   12   13 ar
  24   12   17 ar
  25   13   14 ar
  26   13   28 1
  27   14   15 ar
  28   14   29 1
  29   15   16 ar
  30   15   30 1
  31   16   17 ar
  32   16   31 1
  33   19   22 1
  34   19   32 1
  35   19   33 1
  36   20   21 1
  37   20   34 1
  38   20   35 1
  39   21   22 1
  40   21   36 1
  41   21   37 1
  42   22   38 1
  43   22   39 1

#	End of record

