#	Name: ASD09740093
#	Creating user name:	WinNT
#	Creation time:	15. 06. 2019 21:22

#	Modifying user name:	WinNT
#	Modification time:	15. 06. 2019 21:22

#	Program:	/corina/corina34_cracker 3.40 0067  02.08.2006

@<TRIPOS>MOLECULE
ASD09740093
  31   33    0    0    0
SMALL
NO_CHARGES


@<TRIPOS>ATOM
   1 O1            -0.0144     1.2085     0.0087 O.3     
   2 N2             0.0021    -0.0041     0.0020 N.2     
   3 C3             1.2411     1.6827    -0.0008 C.2     
   4 N4             2.0453     0.6365    -0.0141 N.2     
   5 C5             1.2345    -0.4419    -0.0121 C.2     
   6 C6             1.6625    -1.8640    -0.0238 C.ar    
   7 C7             1.6456     3.1048     0.0023 C.ar    
   8 C8             0.7215    -2.8964    -0.0204 C.ar    
   9 C9             3.0169    -2.2054    -0.0444 C.ar    
  10 C10            3.3713    -3.5395    -0.0547 C.ar    
  11 N11            2.4512    -4.4844    -0.0453 N.ar    
  12 C12            1.1624    -4.2046    -0.0316 C.ar    
  13 C13            0.6766     4.1078     0.0167 C.ar    
  14 C14            1.0636     5.4391     0.0194 C.ar    
  15 C15            2.4138     5.7703     0.0078 C.ar    
  16 C16            3.3737     4.7762    -0.0064 C.ar    
  17 C17            2.9985     3.4478    -0.0034 C.ar    
  18 N18            0.0970     6.4476     0.0333 N.pl3   
  19 C19            0.5061     7.8543     0.0361 C.3     
  20 H20           -0.3354    -2.6745    -0.0088 H       
  21 H21            3.7756    -1.4369    -0.0525 H       
  22 H22            4.4159    -3.8133    -0.0710 H       
  23 H23            0.4424    -5.0095    -0.0243 H       
  24 H24           -0.3718     3.8484     0.0253 H       
  25 H25            2.7135     6.8079     0.0096 H       
  26 H26            4.4211     5.0395    -0.0154 H       
  27 H27            3.7518     2.6740    -0.0143 H       
  28 H28           -0.8450     6.2165     0.0410 H       
  29 H29            1.1093     8.0555     0.9215 H       
  30 H30            1.0925     8.0640    -0.8584 H       
  31 H31           -0.3792     8.4902     0.0475 H       
@<TRIPOS>BOND
   1    1    2 1
   2    1    3 1
   3    2    5 2
   4    3    4 2
   5    3    7 1
   6    4    5 1
   7    5    6 1
   8    6    8 ar
   9    6    9 ar
  10    7   13 ar
  11    7   17 ar
  12    8   12 ar
  13    8   20 1
  14    9   10 ar
  15    9   21 1
  16   10   11 ar
  17   10   22 1
  18   11   12 ar
  19   12   23 1
  20   13   14 ar
  21   13   24 1
  22   14   15 ar
  23   14   18 1
  24   15   16 ar
  25   15   25 1
  26   16   17 ar
  27   16   26 1
  28   17   27 1
  29   18   19 1
  30   18   28 1
  31   19   29 1
  32   19   30 1
  33   19   31 1

#	End of record

