#	Name: ASD01900049
#	Creating user name:	WinNT
#	Creation time:	15. 06. 2019 19:51

#	Modifying user name:	WinNT
#	Modification time:	15. 06. 2019 19:51

#	Program:	/corina/corina34_cracker 3.40 0067  02.08.2006

@<TRIPOS>MOLECULE
ASD01900049
  34   35    0    0    0
SMALL
NO_CHARGES


@<TRIPOS>ATOM
   1 C1             0.1276     1.4076    -0.4985 C.2     
   2 O2             0.2461     0.3024    -0.9912 O.2     
   3 N3             1.1969     2.0203     0.0471 N.am    
   4 C4             2.4161     1.3410     0.1491 C.ar    
   5 C5             3.6119     2.0376     0.0360 C.ar    
   6 C6             4.8150     1.3643     0.1370 C.ar    
   7 C7             4.8282    -0.0030     0.3502 C.ar    
   8 C8             3.6379    -0.6995     0.4633 C.ar    
   9 C9             2.4322    -0.0299     0.3691 C.ar    
  10 Cl10           3.6587    -2.4147     0.7307 Cl      
  11 Cl11           6.3105     2.2345    -0.0043 Cl      
  12 N12           -1.0718     2.0223    -0.5029 N.am    
  13 C13           -2.2177     1.4227    -1.2001 C.3     
  14 C14           -3.3901     1.3154    -0.2199 C.3     
  15 C15           -3.6725     2.6929     0.3841 C.3     
  16 C16           -2.4416     3.1761     1.1545 C.3     
  17 C17           -1.2598     3.3017     0.1946 C.3     
  18 C18           -4.6138     0.8263    -0.9510 C.2     
  19 O19           -4.5959    -0.3665    -1.5664 O.3     
  20 O20           -5.6110     1.5079    -0.9832 O.2     
  21 H21            1.1213     2.9322     0.3691 H       
  22 H22            3.6021     3.1046    -0.1311 H       
  23 H23            5.7691    -0.5273     0.4281 H       
  24 H24            1.5034    -0.5739     0.4575 H       
  25 H25           -2.5026     2.0521    -2.0431 H       
  26 H26           -1.9485     0.4289    -1.5579 H       
  27 H27           -3.1365     0.6145     0.5754 H       
  28 H28           -3.9019     3.3992    -0.4138 H       
  29 H29           -4.5222     2.6243     1.0634 H       
  30 H30           -2.6515     4.1467     1.6039 H       
  31 H31           -2.1969     2.4576     1.9368 H       
  32 H32           -0.3585     3.5495     0.7552 H       
  33 H33           -1.4645     4.0837    -0.5366 H       
  34 H34           -5.4045    -0.6374    -2.0223 H       
@<TRIPOS>BOND
   1    1    2 2
   2    1    3 am
   3    1   12 am
   4    3    4 1
   5    3   21 1
   6    4    5 ar
   7    4    9 ar
   8    5    6 ar
   9    5   22 1
  10    6    7 ar
  11    6   11 1
  12    7    8 ar
  13    7   23 1
  14    8    9 ar
  15    8   10 1
  16    9   24 1
  17   12   13 1
  18   12   17 1
  19   13   14 1
  20   13   25 1
  21   13   26 1
  22   14   15 1
  23   14   18 1
  24   14   27 1
  25   15   16 1
  26   15   28 1
  27   15   29 1
  28   16   17 1
  29   16   30 1
  30   16   31 1
  31   17   32 1
  32   17   33 1
  33   18   19 1
  34   18   20 2
  35   19   34 1

#	End of record

