#	Name: ASD01812002
#	Creating user name:	WinNT
#	Creation time:	15. 06. 2019 19:27

#	Modifying user name:	WinNT
#	Modification time:	15. 06. 2019 19:27

#	Program:	/corina/corina34_cracker 3.40 0067  02.08.2006

@<TRIPOS>MOLECULE
ASD01812002
  58   60    0    0    0
SMALL
NO_CHARGES


@<TRIPOS>ATOM
   1 N1             0.0934     2.4798    -0.1121 N.3     
   2 C2             0.1498     1.0427    -0.4087 C.3     
   3 C3            -1.2635     0.5199    -0.6762 C.3     
   4 C4            -2.1373     0.7720     0.5556 C.3     
   5 C5            -2.1401     2.2702     0.8718 C.3     
   6 C6            -0.7015     2.7422     1.0944 C.3     
   7 C7             1.4436     3.0447     0.0138 C.3     
   8 C8             2.2377     2.7571    -1.2624 C.3     
   9 C9             3.6558     3.3172    -1.1139 C.3     
  10 N10            3.5674     4.7420    -0.7664 N.am    
  11 C11            2.7537     5.1377     0.3912 C.3     
  12 C12            1.3457     4.5572     0.2258 C.3     
  13 C13            4.2207     5.6684    -1.4954 C.2     
  14 O14            4.1309     6.9707    -1.1655 O.3     
  15 O15            4.8908     5.3284    -2.4503 O.2     
  16 C16            4.8609     7.9127    -1.9951 C.3     
  17 C17            4.6398     9.3326    -1.4699 C.3     
  18 N18           -2.9275     2.5130     2.0830 N.am    
  19 C19           -4.2646     2.6601     1.9993 C.2     
  20 C20           -5.0587     2.9050     3.2208 C.ar    
  21 O21           -4.8173     2.5913     0.9187 O.2     
  22 C22           -4.4173     3.1113     4.4438 C.ar    
  23 C23           -5.1631     3.3398     5.5804 C.ar    
  24 C24           -6.5475     3.3646     5.5108 C.ar    
  25 C25           -7.1896     3.1599     4.2988 C.ar    
  26 C26           -6.4535     2.9367     3.1553 C.ar    
  27 C27           -7.1526     2.7149     1.8388 C.3     
  28 F28           -7.2736     3.5885     6.6278 F       
  29 H29            0.7708     0.8776    -1.2891 H       
  30 H30            0.5780     0.5128     0.4422 H       
  31 H31           -1.6871     1.0397    -1.5355 H       
  32 H32           -1.2230    -0.5499    -0.8809 H       
  33 H33           -3.1559     0.4404     0.3537 H       
  34 H34           -1.7358     0.2210     1.4061 H       
  35 H35           -2.5776     2.8175     0.0368 H       
  36 H36           -0.2692     2.2044     1.9382 H       
  37 H37           -0.6987     3.8116     1.3057 H       
  38 H38            1.9491     2.5907     0.8661 H       
  39 H39            2.2870     1.6804    -1.4254 H       
  40 H40            1.7461     3.2319    -2.1116 H       
  41 H41            4.1798     2.7801    -0.3233 H       
  42 H42            4.1941     3.2033    -2.0548 H       
  43 H43            3.2042     4.7491     1.3045 H       
  44 H44            2.6969     6.2250     0.4434 H       
  45 H45            0.8626     5.0150    -0.6373 H       
  46 H46            0.7602     4.7618     1.1221 H       
  47 H47            5.9243     7.6755    -1.9645 H       
  48 H48            4.5030     7.8454    -3.0224 H       
  49 H49            3.5763     9.5698    -1.5005 H       
  50 H50            4.9977     9.3999    -0.4426 H       
  51 H51            5.1878    10.0397    -2.0927 H       
  52 H52           -2.4866     2.5679     2.9453 H       
  53 H53           -3.3389     3.0914     4.4992 H       
  54 H54           -4.6680     3.4995     6.5269 H       
  55 H55           -8.2683     3.1795     4.2503 H       
  56 H56           -7.1903     3.6528     1.2849 H       
  57 H57           -6.6063     1.9716     1.2580 H       
  58 H58           -8.1668     2.3596     2.0214 H       
@<TRIPOS>BOND
   1    1    2 1
   2    1    7 1
   3    1    6 1
   4    2    3 1
   5    2   29 1
   6    2   30 1
   7    3    4 1
   8    3   31 1
   9    3   32 1
  10    4    5 1
  11    4   33 1
  12    4   34 1
  13    5    6 1
  14    5   18 1
  15    5   35 1
  16    6   36 1
  17    6   37 1
  18    7    8 1
  19    7   12 1
  20    7   38 1
  21    8    9 1
  22    8   39 1
  23    8   40 1
  24    9   10 1
  25    9   41 1
  26    9   42 1
  27   10   11 1
  28   10   13 am
  29   11   12 1
  30   11   43 1
  31   11   44 1
  32   12   45 1
  33   12   46 1
  34   13   14 1
  35   13   15 2
  36   14   16 1
  37   16   17 1
  38   16   47 1
  39   16   48 1
  40   17   49 1
  41   17   50 1
  42   17   51 1
  43   18   19 am
  44   18   52 1
  45   19   20 1
  46   19   21 2
  47   20   22 ar
  48   20   26 ar
  49   22   23 ar
  50   22   53 1
  51   23   24 ar
  52   23   54 1
  53   24   25 ar
  54   24   28 1
  55   25   26 ar
  56   25   55 1
  57   26   27 1
  58   27   56 1
  59   27   57 1
  60   27   58 1

#	End of record

