#	Name: ASD03091083
#	Creating user name:	WinNT
#	Creation time:	15. 06. 2019 20:30

#	Modifying user name:	WinNT
#	Modification time:	15. 06. 2019 20:30

#	Program:	/corina/corina34_cracker 3.40 0067  02.08.2006

@<TRIPOS>MOLECULE
ASD03091083
  56   59    0    0    0
SMALL
NO_CHARGES


@<TRIPOS>ATOM
   1 C1            -0.0828     1.7607    -0.1776 C.2     
   2 C2            -0.0897     0.3032     0.0714 C.ar    
   3 C3             1.1144    -0.3980     0.1594 C.ar    
   4 C4             1.1055    -1.7580     0.3919 C.ar    
   5 C5            -0.0930    -2.4311     0.5390 C.ar    
   6 C6            -1.2971    -1.7425     0.4531 C.ar    
   7 C7            -1.2987    -0.3746     0.2250 C.ar    
   8 O8             0.4447     2.2036    -1.1791 O.2     
   9 N9            -0.6664     2.5976     0.7030 N.am    
  10 N10            2.4007     0.3177     0.0028 N.pl3   
  11 O11            3.4444    -0.3085    -0.0420 O.2     
  12 O12            2.4153     1.5327    -0.0812 O.2     
  13 C13           -0.6596     4.0416     0.4563 C.3     
  14 C14           -1.2792     4.7664     1.6528 C.3     
  15 C15           -0.4673     4.6187     2.9504 C.3     
  16 C16           -0.7882     6.0971     3.2266 C.3     
  17 C17           -0.9433     6.2661     1.7060 C.3     
  18 C18           -2.7692     4.4637     1.8242 C.3     
  19 O19           -3.4664     4.8087     0.6255 O.3     
  20 N20           -5.2691    -3.2506    -0.0735 N.3     
  21 C21           -4.9604    -2.1810     0.8878 C.3     
  22 C22           -3.6451    -1.5044     0.5346 C.3     
  23 N23           -2.5058    -2.4274     0.6019 N.3     
  24 C24           -2.6379    -3.4877    -0.4071 C.3     
  25 C25           -3.3007    -4.7163     0.1978 C.3     
  26 C26           -4.7865    -4.5411     0.4386 C.3     
  27 C27           -4.8817    -3.0088    -1.4467 C.3     
  28 C28           -3.3730    -2.9365    -1.6151 C.3     
  29 H29            2.0381    -2.2986     0.4590 H       
  30 H30           -0.0936    -3.4957     0.7208 H       
  31 H31           -2.2332     0.1632     0.1620 H       
  32 H32           -1.0909     2.2438     1.5002 H       
  33 H33            0.3666     4.3816     0.3171 H       
  34 H34           -1.2394     4.2597    -0.4407 H       
  35 H35           -0.9148     3.9329     3.6698 H       
  36 H36            0.5923     4.4258     2.7829 H       
  37 H37           -1.7157     6.2466     3.7794 H       
  38 H38            0.0496     6.6550     3.6448 H       
  39 H39           -0.0138     6.5236     1.1983 H       
  40 H40           -1.7750     6.9103     1.4209 H       
  41 H41           -2.9029     3.4016     2.0294 H       
  42 H42           -3.1651     5.0470     2.6556 H       
  43 H43           -4.4183     4.6429     0.6626 H       
  44 H44           -5.7606    -1.4411     0.8710 H       
  45 H45           -4.8876    -2.6074     1.8883 H       
  46 H46           -3.7149    -1.1029    -0.4763 H       
  47 H47           -3.4740    -0.6813     1.2284 H       
  48 H48           -1.6367    -3.7693    -0.7333 H       
  49 H49           -3.1530    -5.5604    -0.4759 H       
  50 H50           -2.8169    -4.9423     1.1480 H       
  51 H51           -4.9822    -4.5947     1.5095 H       
  52 H52           -5.3253    -5.3462    -0.0610 H       
  53 H53           -5.2688    -3.8147    -2.0703 H       
  54 H54           -5.3198    -2.0670    -1.7771 H       
  55 H55           -3.0824    -1.8963    -1.7625 H       
  56 H56           -3.0869    -3.5108    -2.4963 H       
@<TRIPOS>BOND
   1    1    2 1
   2    1    8 2
   3    1    9 am
   4    2    3 ar
   5    2    7 ar
   6    3    4 ar
   7    3   10 1
   8    4    5 ar
   9    4   29 1
  10    5    6 ar
  11    5   30 1
  12    6    7 ar
  13    6   23 1
  14    7   31 1
  15    9   13 1
  16    9   32 1
  17   10   11 2
  18   10   12 2
  19   13   14 1
  20   13   33 1
  21   13   34 1
  22   14   15 1
  23   14   17 1
  24   14   18 1
  25   15   16 1
  26   15   35 1
  27   15   36 1
  28   16   17 1
  29   16   37 1
  30   16   38 1
  31   17   39 1
  32   17   40 1
  33   18   19 1
  34   18   41 1
  35   18   42 1
  36   19   43 1
  37   20   21 1
  38   20   26 1
  39   20   27 1
  40   21   22 1
  41   21   44 1
  42   21   45 1
  43   22   23 1
  44   22   46 1
  45   22   47 1
  46   23   24 1
  47   24   25 1
  48   24   28 1
  49   24   48 1
  50   25   26 1
  51   25   49 1
  52   25   50 1
  53   26   51 1
  54   26   52 1
  55   27   28 1
  56   27   53 1
  57   27   54 1
  58   28   55 1
  59   28   56 1

#	End of record

