#	Name: ASD05510003
#	Creating user name:	WinNT
#	Creation time:	15. 06. 2019 21:01

#	Modifying user name:	WinNT
#	Modification time:	15. 06. 2019 21:01

#	Program:	/corina/corina34_cracker 3.40 0067  02.08.2006

@<TRIPOS>MOLECULE
ASD05510003
  32   34    0    0    0
SMALL
NO_CHARGES


@<TRIPOS>ATOM
   1 C1             0.2716     1.7111    -1.2459 C.ar    
   2 C2             0.4219     0.4487    -1.7838 C.ar    
   3 C3             1.6766    -0.1365    -1.8418 C.ar    
   4 C4             2.7874     0.5325    -1.3645 C.ar    
   5 C5             1.3838     2.3923    -0.7634 C.ar    
   6 C6             1.5667     3.7236    -0.1418 C.2     
   7 C7             2.6549     1.8043    -0.8195 C.ar    
   8 N8             3.5891     2.6801    -0.2787 N.am    
   9 C9             3.0110     3.8209     0.1339 C.2     
  10 O10            3.5800     4.7673     0.6464 O.2     
  11 C11            0.6066     4.6577     0.1186 C.2     
  12 C12           -0.8083     4.3294    -0.0795 C.2     
  13 C13           -1.3529     3.2782     0.5652 C.2     
  14 C14           -1.6414     5.1547    -0.9900 C.ar    
  15 Cl15           1.8545    -1.7247    -2.5196 Cl      
  16 C16           -3.1951     6.6939    -2.6880 C.ar    
  17 C17           -2.1560     5.9361    -3.2005 C.ar    
  18 C18           -1.3789     5.1674    -2.3581 C.ar    
  19 C19           -2.6918     5.9145    -0.4796 C.ar    
  20 C20           -3.4634     6.6800    -1.3299 C.ar    
  21 Cl21          -4.1693     7.6589    -3.7526 Cl      
  22 H22           -0.7052     2.1698    -1.2040 H       
  23 H23           -0.4394    -0.0836    -2.1595 H       
  24 H24            3.7603     0.0662    -1.4146 H       
  25 H25            4.5382     2.4921    -0.2089 H       
  26 H26            0.8891     5.6389     0.4706 H       
  27 H27           -2.3953     3.0363     0.4192 H       
  28 H28           -0.7468     2.6778     1.2275 H       
  29 H29           -1.9505     5.9501    -4.2606 H       
  30 H30           -0.5683     4.5769    -2.7588 H       
  31 H31           -2.9021     5.9040     0.5796 H       
  32 H32           -4.2749     7.2731    -0.9346 H       
@<TRIPOS>BOND
   1    1    2 ar
   2    1    5 ar
   3    1   22 1
   4    2    3 ar
   5    2   23 1
   6    3    4 ar
   7    3   15 1
   8    4    7 ar
   9    4   24 1
  10    5    7 ar
  11    5    6 1
  12    6    9 1
  13    6   11 2
  14    7    8 1
  15    8    9 am
  16    8   25 1
  17    9   10 2
  18   11   12 1
  19   11   26 1
  20   12   13 2
  21   12   14 1
  22   13   27 1
  23   13   28 1
  24   14   19 ar
  25   14   18 ar
  26   16   17 ar
  27   16   20 ar
  28   16   21 1
  29   17   18 ar
  30   17   29 1
  31   18   30 1
  32   19   20 ar
  33   19   31 1
  34   20   32 1

#	End of record

