#	Name: ASD09080127
#	Creating user name:	WinNT
#	Creation time:	15. 06. 2019 21:20

#	Modifying user name:	WinNT
#	Modification time:	15. 06. 2019 21:20

#	Program:	/corina/corina34_cracker 3.40 0067  02.08.2006

@<TRIPOS>MOLECULE
ASD09080127
  63   65    0    0    0
SMALL
NO_CHARGES


@<TRIPOS>ATOM
   1 C1            -0.0167     1.3799     0.0096 C.ar    
   2 C2             0.0021    -0.0041     0.0020 C.ar    
   3 C3             1.2064    -0.6807    -0.0132 C.ar    
   4 C4             2.4033     0.0323    -0.0208 C.ar    
   5 C5             2.3791     1.4253    -0.0131 C.ar    
   6 C6             1.1698     2.0928     0.0021 C.ar    
   7 Cl7            1.1380     3.8285     0.0112 Cl      
   8 Cl8           -1.4902    -0.8910     0.0121 Cl      
   9 C9             3.6997    -0.6896    -0.0366 C.ar    
  10 C10            4.8969     0.0232    -0.0443 C.ar    
  11 C11            3.7242    -2.0828    -0.0381 C.ar    
  12 C12            4.9328    -2.7491    -0.0529 C.ar    
  13 C13            6.1183    -2.0365    -0.0658 C.ar    
  14 C14            6.0998    -0.6534    -0.0590 C.ar    
  15 C15            7.4348    -2.7697    -0.0809 C.3     
  16 C16            7.8642    -3.0170    -1.5284 C.3     
  17 C17            9.1352    -3.8687    -1.5449 C.3     
  18 N18            8.1280    -1.7309    -2.1874 N.3     
  19 C19            9.5951    -4.1363    -2.9949 C.3     
  20 O20            8.8671    -5.1994    -1.0399 O.3     
  21 C21            9.8965    -6.0011    -1.6582 C.3     
  22 O22           10.0380    -5.5054    -3.0004 O.3     
  23 C23           11.2144    -5.8434    -0.8973 C.3     
  24 C24            9.4747    -7.4717    -1.6823 C.3     
  25 C25           10.7315    -3.2171    -3.3616 C.2     
  26 O26           11.8258    -3.6729    -3.5955 O.2     
  27 O27           10.5281    -1.8920    -3.4282 O.3     
  28 C28           11.2524     0.3810    -3.8117 C.ar    
  29 C29           11.3520     1.1480    -2.6660 C.ar    
  30 C30           10.9761     2.4781    -2.6899 C.ar    
  31 C31           10.5011     3.0412    -3.8595 C.ar    
  32 C32           10.4024     2.2745    -5.0055 C.ar    
  33 C33           10.7769     0.9440    -4.9813 C.ar    
  34 C34           11.6680    -1.0673    -3.7874 C.3     
  35 H35           -0.9602     1.9054     0.0170 H       
  36 H36            1.2200    -1.7606    -0.0187 H       
  37 H37            3.3044     1.9824    -0.0186 H       
  38 H38            4.8836     1.1031    -0.0390 H       
  39 H39            2.7992    -2.6402    -0.0274 H       
  40 H40            4.9530    -3.8289    -0.0541 H       
  41 H41            7.0283    -0.1019    -0.0695 H       
  42 H42            8.1909    -2.1691     0.4249 H       
  43 H43            7.3250    -3.7243     0.4337 H       
  44 H44            7.0690    -3.5407    -2.0589 H       
  45 H45            9.9276    -3.3878    -0.9714 H       
  46 H46            8.8621    -1.2258    -1.7140 H       
  47 H47            8.3510    -1.8633    -3.1626 H       
  48 H48            8.7628    -4.0050    -3.6863 H       
  49 H49           11.0795    -6.1684     0.1343 H       
  50 H50           11.9834    -6.4525    -1.3725 H       
  51 H51           11.5193    -4.7970    -0.9117 H       
  52 H52            8.5507    -7.5753    -2.2511 H       
  53 H53           10.2585    -8.0668    -2.1508 H       
  54 H54            9.3144    -7.8204    -0.6621 H       
  55 H55           11.7231     0.7080    -1.7522 H       
  56 H56           11.0533     3.0771    -1.7946 H       
  57 H57           10.2068     4.0802    -3.8780 H       
  58 H58           10.0306     2.7143    -5.9191 H       
  59 H59           10.6991     0.3448    -5.8764 H       
  60 H60           12.4619    -1.2052    -3.0533 H       
  61 H61           12.0304    -1.3580    -4.7734 H       
  62 Cl62          17.4619     9.0802     5.4337 Cl      
  63 H63           17.4619    10.4502     5.4337 H       
@<TRIPOS>BOND
   1    1    2 ar
   2    1    6 ar
   3    1   35 1
   4    2    3 ar
   5    2    8 1
   6    3    4 ar
   7    3   36 1
   8    4    5 ar
   9    4    9 1
  10    5    6 ar
  11    5   37 1
  12    6    7 1
  13    9   10 ar
  14    9   11 ar
  15   10   14 ar
  16   10   38 1
  17   11   12 ar
  18   11   39 1
  19   12   13 ar
  20   12   40 1
  21   13   14 ar
  22   13   15 1
  23   14   41 1
  24   15   16 1
  25   15   42 1
  26   15   43 1
  27   16   18 1
  28   16   17 1
  29   16   44 1
  30   17   19 1
  31   17   20 1
  32   17   45 1
  33   18   46 1
  34   18   47 1
  35   19   22 1
  36   19   25 1
  37   19   48 1
  38   20   21 1
  39   21   22 1
  40   21   23 1
  41   21   24 1
  42   23   49 1
  43   23   50 1
  44   23   51 1
  45   24   52 1
  46   24   53 1
  47   24   54 1
  48   25   26 2
  49   25   27 1
  50   27   34 1
  51   28   29 ar
  52   28   33 ar
  53   28   34 1
  54   29   30 ar
  55   29   55 1
  56   30   31 ar
  57   30   56 1
  58   31   32 ar
  59   31   57 1
  60   32   33 ar
  61   32   58 1
  62   33   59 1
  63   34   60 1
  64   34   61 1
  65   62   63 1

#	End of record

