#	Name: ASD01901024
#	Creating user name:	WinNT
#	Creation time:	15. 06. 2019 19:53

#	Modifying user name:	WinNT
#	Modification time:	15. 06. 2019 19:53

#	Program:	/corina/corina34_cracker 3.40 0067  02.08.2006

@<TRIPOS>MOLECULE
ASD01901024
  28   30    0    0    0
SMALL
NO_CHARGES


@<TRIPOS>ATOM
   1 C1            -0.0159     1.3195     0.0093 C.ar    
   2 N2             0.0021    -0.0041     0.0020 N.ar    
   3 C3             1.1568    -0.6661    -0.0125 C.ar    
   4 C4             2.3525     0.0578    -0.0200 C.ar    
   5 C5             2.2862     1.4395    -0.0120 C.ar    
   6 N6             1.1020     2.0310     0.0024 N.ar    
   7 N7            -1.2337     1.9773     0.0186 N.pl3   
   8 C8            -0.0182    -2.8486    -0.0121 C.ar    
   9 C9             1.1744    -2.1486    -0.0202 C.ar    
  10 C10            2.4021    -2.8303    -0.0360 C.ar    
  11 C11            2.4454    -4.1878    -0.0438 C.ar    
  12 C12            1.2504    -4.9291    -0.0355 C.ar    
  13 C13            1.2684    -6.3341    -0.0438 C.ar    
  14 C14            0.0950    -7.0239    -0.0358 C.ar    
  15 C15           -1.1293    -6.3581    -0.0195 C.ar    
  16 C16           -1.1867    -4.9985    -0.0111 C.ar    
  17 C17            0.0048    -4.2514    -0.0190 C.ar    
  18 H18            3.3057    -0.4497    -0.0315 H       
  19 H19            3.1909     2.0293    -0.0171 H       
  20 H20           -2.0597     1.4686     0.0197 H       
  21 H21           -1.2612     2.9469     0.0240 H       
  22 H22           -0.9597    -2.3197     0.0041 H       
  23 H23            3.3240    -2.2677    -0.0425 H       
  24 H24            3.3973    -4.6978    -0.0567 H       
  25 H25            2.2092    -6.8644    -0.0568 H       
  26 H26            0.1129    -8.1037    -0.0426 H       
  27 H27           -2.0457    -6.9294    -0.0138 H       
  28 H28           -2.1425    -4.4957     0.0015 H       
@<TRIPOS>BOND
   1    1    2 ar
   2    1    6 ar
   3    1    7 1
   4    2    3 ar
   5    3    4 ar
   6    3    9 1
   7    4    5 ar
   8    4   18 1
   9    5    6 ar
  10    5   19 1
  11    7   20 1
  12    7   21 1
  13    8    9 ar
  14    8   17 ar
  15    8   22 1
  16    9   10 ar
  17   10   11 ar
  18   10   23 1
  19   11   12 ar
  20   11   24 1
  21   12   13 ar
  22   12   17 ar
  23   13   14 ar
  24   13   25 1
  25   14   15 ar
  26   14   26 1
  27   15   16 ar
  28   15   27 1
  29   16   17 ar
  30   16   28 1

#	End of record

