#	Name: ASD01708018
#	Creating user name:	WinNT
#	Creation time:	15. 06. 2019 19:22

#	Modifying user name:	WinNT
#	Modification time:	15. 06. 2019 19:22

#	Program:	/corina/corina34_cracker 3.40 0067  02.08.2006

@<TRIPOS>MOLECULE
ASD01708018
  63   67    0    0    0
SMALL
NO_CHARGES


@<TRIPOS>ATOM
   1 C1            -0.0201     1.3541     0.0208 C.ar    
   2 C2             0.0068     0.0099    -0.3369 C.ar    
   3 C3             1.1425     2.0430     0.2215 C.ar    
   4 C4             2.3736     1.3920     0.0662 C.ar    
   5 C5             2.4023     0.0314    -0.2960 C.ar    
   6 C6             1.2047    -0.6500    -0.4946 C.ar    
   7 F7            -1.2059     1.9850     0.1656 F       
   8 C8             3.7190     1.8131     0.1977 C.2     
   9 C9             4.5152     0.7463    -0.0751 C.2     
  10 N10            3.7233    -0.3444    -0.3771 N.pl3   
  11 C11            5.9855     0.7521    -0.0524 C.2     
  12 N12            6.6627    -0.4098     0.0364 N.am    
  13 O13            6.5907     1.8056    -0.1137 O.2     
  14 C14            8.1295    -0.4527    -0.0843 C.3     
  15 C15            5.9689    -1.6819     0.2633 C.3     
  16 C16            6.7061    -2.4841     1.3070 C.ar    
  17 C17            7.9645    -2.1369     1.7489 C.ar    
  18 C18            8.6965    -0.9250     1.2533 C.3     
  19 C19            6.0715    -3.6079     1.8227 C.ar    
  20 C20            6.6889    -4.3918     2.7729 C.ar    
  21 C21            7.9684    -4.0517     3.2213 C.ar    
  22 C22            8.5990    -2.9218     2.7026 C.ar    
  23 Cl23           5.8830    -5.7915     3.4093 Cl      
  24 Cl24          10.1884    -2.4926     3.2534 Cl      
  25 C25            8.6470    -4.8831     4.2360 C.2     
  26 N26            8.4867    -4.6117     5.5464 N.am    
  27 O27            9.3501    -5.8123     3.8892 O.2     
  28 C28            9.1598    -5.4364     6.5529 C.3     
  29 C29            8.3199    -6.6518     6.8499 C.2     
  30 O30            8.7414    -7.5557     7.7483 O.3     
  31 O31            7.2670    -6.8127     6.2794 O.2     
  32 C32            9.3505    -4.6226     7.8344 C.3     
  33 C33           10.2900    -3.4753     7.5658 C.2     
  34 C34            9.9328    -2.2464     7.1517 C.2     
  35 O35           11.6255    -3.5047     7.7049 O.3     
  36 C36           12.1362    -2.3062     7.3785 C.2     
  37 C37           11.1231    -1.4935     7.0286 C.2     
  38 S38           13.8433    -1.8709     7.4080 S.o2    
  39 C39           14.1197    -1.2362     9.0847 C.3     
  40 O40           14.5229    -3.1052     7.2237 O.2     
  41 O41           13.9545    -0.8238     6.4538 O.2     
  42 H42           -0.9208    -0.5210    -0.4920 H       
  43 H43            1.1127     3.0864     0.4987 H       
  44 H44            1.2153    -1.6937    -0.7722 H       
  45 H45            4.0526     2.8044     0.4666 H       
  46 H46            4.0455    -1.2296    -0.6083 H       
  47 H47            8.4145    -1.1495    -0.8725 H       
  48 H48            8.5098     0.5423    -0.3155 H       
  49 H49            4.9536    -1.4848     0.6076 H       
  50 H50            5.9320    -2.2461    -0.6686 H       
  51 H51            9.7503    -1.1713     1.1228 H       
  52 H52            8.6046    -0.1253     1.9882 H       
  53 H53            5.0831    -3.8696     1.4749 H       
  54 H54            7.9257    -3.8703     5.8230 H       
  55 H55           10.1323    -5.7506     6.1739 H       
  56 H56            8.1685    -8.3187     7.9053 H       
  57 H57            8.3873    -4.2337     8.1646 H       
  58 H58            9.7701    -5.2615     8.6115 H       
  59 H59            8.9292    -1.9011     6.9516 H       
  60 H60           11.2035    -0.4636     6.7135 H       
  61 H61           13.8857    -2.0145     9.8110 H       
  62 H62           15.1629    -0.9395     9.1935 H       
  63 H63           13.4767    -0.3731     9.2570 H       
@<TRIPOS>BOND
   1    1    2 ar
   2    1    3 ar
   3    1    7 1
   4    2    6 ar
   5    2   42 1
   6    3    4 ar
   7    3   43 1
   8    4    5 ar
   9    4    8 1
  10    5    6 ar
  11    5   10 1
  12    6   44 1
  13    8    9 2
  14    8   45 1
  15    9   10 1
  16    9   11 1
  17   10   46 1
  18   11   12 am
  19   11   13 2
  20   12   14 1
  21   12   15 1
  22   14   18 1
  23   14   47 1
  24   14   48 1
  25   15   16 1
  26   15   49 1
  27   15   50 1
  28   16   17 ar
  29   16   19 ar
  30   17   18 1
  31   17   22 ar
  32   18   51 1
  33   18   52 1
  34   19   20 ar
  35   19   53 1
  36   20   21 ar
  37   20   23 1
  38   21   22 ar
  39   21   25 1
  40   22   24 1
  41   25   26 am
  42   25   27 2
  43   26   28 1
  44   26   54 1
  45   28   29 1
  46   28   32 1
  47   28   55 1
  48   29   30 1
  49   29   31 2
  50   30   56 1
  51   32   33 1
  52   32   57 1
  53   32   58 1
  54   33   34 2
  55   33   35 1
  56   34   37 1
  57   34   59 1
  58   35   36 1
  59   36   37 2
  60   36   38 1
  61   37   60 1
  62   38   39 1
  63   38   40 2
  64   38   41 2
  65   39   61 1
  66   39   62 1
  67   39   63 1

#	End of record

