#	Name: ASD01916186
#	Creating user name:	WinNT
#	Creation time:	15. 06. 2019 20:06

#	Modifying user name:	WinNT
#	Modification time:	15. 06. 2019 20:06

#	Program:	/corina/corina34_cracker 3.40 0067  02.08.2006

@<TRIPOS>MOLECULE
ASD01916186
  39   42    0    0    0
SMALL
NO_CHARGES


@<TRIPOS>ATOM
   1 C1             0.0219     1.8562    -2.1132 C.ar    
   2 C2             0.0510     0.6028    -2.6961 C.ar    
   3 C3             1.2602    -0.0258    -2.9293 C.ar    
   4 C4             2.4427     0.5976    -2.5806 C.ar    
   5 C5             2.4161     1.8555    -1.9961 C.ar    
   6 C6             1.2015     2.4839    -1.7627 C.ar    
   7 O7             3.5780     2.4707    -1.6518 O.3     
   8 C8             3.4746     3.7646    -1.0542 C.3     
   9 C9             4.8539     4.2858    -0.7429 C.2     
  10 N10            5.1331     5.4679    -0.1779 N.2     
  11 C11            6.4374     5.5937    -0.0547 C.2     
  12 N12            7.0274     4.4574    -0.5553 N.am    
  13 C13            6.0112     3.6376    -0.9814 C.2     
  14 C14            7.2952     6.6548     0.4820 C.2     
  15 C15            8.6305     6.4701     0.4616 C.2     
  16 N16            9.1550     5.3050    -0.0556 N.am    
  17 C17            8.3652     4.3345    -0.5459 C.2     
  18 O18            8.8727     3.3236    -0.9925 O.2     
  19 C19           10.5448     5.1282    -0.0702 C.ar    
  20 C20           11.1810     4.5309     1.0100 C.ar    
  21 C21           12.5510     4.3576     0.9937 C.ar    
  22 C22           13.2903     4.7794    -0.0987 C.ar    
  23 C23           12.6578     5.3757    -1.1767 C.ar    
  24 C24           11.2872     5.5448    -1.1672 C.ar    
  25 F25           14.6305     4.6094    -0.1125 F       
  26 F26            6.7608     7.7895     0.9841 F       
  27 H27           -0.9237     2.3469    -1.9358 H       
  28 H28           -0.8723     0.1137    -2.9693 H       
  29 H29            1.2803    -1.0052    -3.3840 H       
  30 H30            3.3869     0.1060    -2.7627 H       
  31 H31            1.1783     3.4632    -1.3080 H       
  32 H32            2.9764     4.4450    -1.7449 H       
  33 H33            2.8963     3.6942    -0.1330 H       
  34 H34            6.1193     2.6607    -1.4291 H       
  35 H35            9.2881     7.2339     0.8495 H       
  36 H36           10.6049     4.2025     1.8624 H       
  37 H37           13.0462     3.8931     1.8336 H       
  38 H38           13.2362     5.7043    -2.0276 H       
  39 H39           10.7942     6.0096    -2.0083 H       
@<TRIPOS>BOND
   1    1    2 ar
   2    1    6 ar
   3    1   27 1
   4    2    3 ar
   5    2   28 1
   6    3    4 ar
   7    3   29 1
   8    4    5 ar
   9    4   30 1
  10    5    6 ar
  11    5    7 1
  12    6   31 1
  13    7    8 1
  14    8    9 1
  15    8   32 1
  16    8   33 1
  17    9   10 1
  18    9   13 2
  19   10   11 2
  20   11   12 1
  21   11   14 1
  22   12   13 1
  23   12   17 am
  24   13   34 1
  25   14   15 2
  26   14   26 1
  27   15   16 1
  28   15   35 1
  29   16   17 am
  30   16   19 1
  31   17   18 2
  32   19   20 ar
  33   19   24 ar
  34   20   21 ar
  35   20   36 1
  36   21   22 ar
  37   21   37 1
  38   22   23 ar
  39   22   25 1
  40   23   24 ar
  41   23   38 1
  42   24   39 1

#	End of record

