#	Name: ASD01883882
#	Creating user name:	WinNT
#	Creation time:	15. 06. 2019 19:47

#	Modifying user name:	WinNT
#	Modification time:	15. 06. 2019 19:47

#	Program:	/corina/corina34_cracker 3.40 0067  02.08.2006

@<TRIPOS>MOLECULE
ASD01883882
  50   53    0    0    0
SMALL
NO_CHARGES


@<TRIPOS>ATOM
   1 C1            -0.3737     1.4334     0.0016 C.ar    
   2 C2            -0.3333     0.0694     0.0035 C.ar    
   3 C3             0.8986    -0.5964     0.0594 C.ar    
   4 C4             2.0908     0.1485     0.1133 C.ar    
   5 C5             2.0336     1.5312     0.1106 C.ar    
   6 C6             0.8046     2.1733     0.0548 C.ar    
   7 C7             0.9446    -2.0606     0.0621 C.2     
   8 O8             2.0122    -2.6341     0.0022 O.2     
   9 C9            -0.3340    -2.8545     0.1392 C.3     
  10 O10            3.2887    -0.4846     0.1680 O.3     
  11 C11            3.3047     2.3387     0.1685 C.3     
  12 O12            0.7509     3.5290     0.0518 O.3     
  13 C13           -0.5457     4.1268    -0.0074 C.3     
  14 C14           -0.4076     5.6274    -0.0018 C.ar    
  15 C15           -0.2667     7.6902     1.2058 C.ar    
  16 C16           -0.3931     6.3147     1.1979 C.ar    
  17 C17           -0.2900     6.3141    -1.1962 C.ar    
  18 C18           -0.1629     7.6897    -1.1938 C.ar    
  19 C19           -0.1534     8.3822     0.0085 C.ar    
  20 O20           -0.0289     9.7354     0.0136 O.3     
  21 C21           -1.0481    10.4707    -0.4977 C.ar    
  22 C22           -0.9131    11.8471    -0.6076 C.ar    
  23 N23           -2.1575     9.8666    -0.8910 N.ar    
  24 C24           -3.1764    10.5374    -1.3952 C.ar    
  25 C25           -3.1240    11.9079    -1.5337 C.ar    
  26 C26           -1.9691    12.5895    -1.1356 C.ar    
  27 C27           -1.8698    14.0645    -1.2725 C.2     
  28 N28           -2.7920    14.8744    -1.7531 N.2     
  29 N29           -2.3264    16.0751    -1.7048 N.pl3   
  30 N30           -1.1386    16.0515    -1.2089 N.2     
  31 N31           -0.8271    14.8323    -0.9260 N.2     
  32 H32           -1.3252     1.9421    -0.0461 H       
  33 H33           -1.2516    -0.4976    -0.0376 H       
  34 H34           -1.1748    -2.1760     0.2839 H       
  35 H35           -0.4721    -3.4118    -0.7873 H       
  36 H36           -0.2799    -3.5498     0.9769 H       
  37 H37            3.6763    -0.6686    -0.6986 H       
  38 H38            3.6580     2.5333    -0.8441 H       
  39 H39            3.1112     3.2849     0.6740 H       
  40 H40            4.0641     1.7821     0.7176 H       
  41 H41           -1.0496     3.8117    -0.9211 H       
  42 H42           -1.1305     3.8125     0.8570 H       
  43 H43           -0.2562     8.2266     2.1432 H       
  44 H44           -0.4810     5.7756     2.1296 H       
  45 H45           -0.2971     5.7746    -2.1317 H       
  46 H46           -0.0707     8.2255    -2.1269 H       
  47 H47           -0.0044    12.3362    -0.2889 H       
  48 H48           -4.0637    10.0048    -1.7040 H       
  49 H49           -3.9625    12.4481    -1.9480 H       
  50 H50           -2.7969    16.8716    -1.9966 H       
@<TRIPOS>BOND
   1    1    2 ar
   2    1    6 ar
   3    1   32 1
   4    2    3 ar
   5    2   33 1
   6    3    4 ar
   7    3    7 1
   8    4    5 ar
   9    4   10 1
  10    5    6 ar
  11    5   11 1
  12    6   12 1
  13    7    8 2
  14    7    9 1
  15    9   34 1
  16    9   35 1
  17    9   36 1
  18   10   37 1
  19   11   38 1
  20   11   39 1
  21   11   40 1
  22   12   13 1
  23   13   14 1
  24   13   41 1
  25   13   42 1
  26   14   17 ar
  27   14   16 ar
  28   15   16 ar
  29   15   19 ar
  30   15   43 1
  31   16   44 1
  32   17   18 ar
  33   17   45 1
  34   18   19 ar
  35   18   46 1
  36   19   20 1
  37   20   21 1
  38   21   23 ar
  39   21   22 ar
  40   22   26 ar
  41   22   47 1
  42   23   24 ar
  43   24   25 ar
  44   24   48 1
  45   25   26 ar
  46   25   49 1
  47   26   27 1
  48   27   28 2
  49   27   31 1
  50   28   29 1
  51   29   30 1
  52   29   50 1
  53   30   31 2

#	End of record

