#	Name: ASD01813287
#	Creating user name:	WinNT
#	Creation time:	15. 06. 2019 19:30

#	Modifying user name:	WinNT
#	Modification time:	15. 06. 2019 19:30

#	Program:	/corina/corina34_cracker 3.40 0067  02.08.2006

@<TRIPOS>MOLECULE
ASD01813287
  60   64    0    0    0
SMALL
NO_CHARGES


@<TRIPOS>ATOM
   1 C1            -0.0178     1.4608     0.0101 C.3     
   2 N2             0.0021    -0.0041     0.0020 N.pl3   
   3 C3             0.0078    -0.7885    -1.0945 C.2     
   4 C4             0.0273    -2.0862    -0.6736 C.2     
   5 C5             0.0335    -2.0759     0.7348 C.2     
   6 N6             0.0245    -0.8309     1.1317 N.2     
   7 C7             0.0393    -3.2902    -1.5423 C.ar    
   8 C8             0.0364    -3.1521    -2.9285 C.ar    
   9 C9             0.0475    -4.2747    -3.7314 C.ar    
  10 C10            0.0615    -5.5352    -3.1620 C.ar    
  11 C11            0.0736    -6.7572    -4.0438 C.3     
  12 C12            1.4984    -7.1495    -4.3391 C.ar    
  13 C13            2.0987    -6.7148    -5.4750 C.ar    
  14 C14            3.4283    -7.0686    -5.7703 C.ar    
  15 C15            4.0575    -6.5816    -7.0129 C.2     
  16 O16            5.2061    -6.8849    -7.2721 O.2     
  17 N17            3.3590    -5.8007    -7.8607 N.am    
  18 C18            3.9837    -5.3171    -9.0944 C.3     
  19 H19            5.0406    -5.1200    -8.9150 H       
  20 C20            3.8390    -6.3765   -10.1913 C.3     
  21 C21            4.4241    -5.8314   -11.4968 C.3     
  22 O22            3.7561    -4.6174   -11.8464 O.3     
  23 C23            3.8967    -3.5747   -10.8794 C.3     
  24 C24            3.2918    -4.0279    -9.5479 C.3     
  25 H25            2.2255    -4.2131    -9.6780 H       
  26 O26            3.4844    -3.0107    -8.5630 O.3     
  27 C27            4.1524    -7.8726    -4.9001 C.ar    
  28 F28            5.4288    -8.2103    -5.1860 F       
  29 C29            3.5444    -8.3316    -3.7178 C.ar    
  30 C30            4.2431    -9.1464    -2.8111 C.ar    
  31 C31            3.6258    -9.5739    -1.6751 C.ar    
  32 C32            2.3090    -9.2150    -1.3973 C.ar    
  33 C33            1.6015    -8.4266    -2.2534 C.ar    
  34 C34            2.2060    -7.9618    -3.4326 C.ar    
  35 C35            0.0649    -5.6780    -1.7863 C.ar    
  36 C36            0.0592    -4.5619    -0.9741 C.ar    
  37 H37            1.0048     1.8381     0.0023 H       
  38 H38           -0.5450     1.8219    -0.8730 H       
  39 H39           -0.5280     1.8123     0.9069 H       
  40 H40           -0.0020    -0.4508    -2.1203 H       
  41 H41            0.0479    -2.9455     1.3751 H       
  42 H42            0.0251    -2.1684    -3.3741 H       
  43 H43            0.0450    -4.1688    -4.8062 H       
  44 H44           -0.4310    -7.5780    -3.5341 H       
  45 H45           -0.4435    -6.5367    -4.9776 H       
  46 H46            1.5487    -6.0890    -6.1623 H       
  47 H47            2.4427    -5.5588    -7.6539 H       
  48 H48            4.3768    -7.2786    -9.8998 H       
  49 H49            2.7841    -6.6106   -10.3348 H       
  50 H50            5.4882    -5.6356   -11.3643 H       
  51 H51            4.2854    -6.5645   -12.2914 H       
  52 H52            4.9538    -3.3494   -10.7389 H       
  53 H53            3.3780    -2.6821   -11.2292 H       
  54 H54            3.0718    -2.1648    -8.7853 H       
  55 H55            5.2645    -9.4325    -3.0143 H       
  56 H56            4.1648   -10.2005    -0.9798 H       
  57 H57            1.8418    -9.5674    -0.4896 H       
  58 H58            0.5810    -8.1570    -2.0245 H       
  59 H59            0.0762    -6.6644    -1.3467 H       
  60 H60            0.0663    -4.6744     0.1000 H       
@<TRIPOS>BOND
   1    1    2 1
   2    1   37 1
   3    1   38 1
   4    1   39 1
   5    2    6 1
   6    2    3 1
   7    3    4 2
   8    3   40 1
   9    4    5 1
  10    4    7 1
  11    5    6 2
  12    5   41 1
  13    7   36 ar
  14    7    8 ar
  15    8    9 ar
  16    8   42 1
  17    9   10 ar
  18    9   43 1
  19   10   11 1
  20   10   35 ar
  21   11   12 1
  22   11   44 1
  23   11   45 1
  24   12   34 ar
  25   12   13 ar
  26   13   14 ar
  27   13   46 1
  28   14   15 1
  29   14   27 ar
  30   15   16 2
  31   15   17 am
  32   17   18 1
  33   17   47 1
  34   18   19 1
  35   18   24 1
  36   18   20 1
  37   20   21 1
  38   20   48 1
  39   20   49 1
  40   21   22 1
  41   21   50 1
  42   21   51 1
  43   22   23 1
  44   23   24 1
  45   23   52 1
  46   23   53 1
  47   24   25 1
  48   24   26 1
  49   26   54 1
  50   27   28 1
  51   27   29 ar
  52   29   34 ar
  53   29   30 ar
  54   30   31 ar
  55   30   55 1
  56   31   32 ar
  57   31   56 1
  58   32   33 ar
  59   32   57 1
  60   33   34 ar
  61   33   58 1
  62   35   36 ar
  63   35   59 1
  64   36   60 1

#	End of record

