#	Name: ASD07300280
#	Creating user name:	WinNT
#	Creation time:	15. 06. 2019 21:09

#	Modifying user name:	WinNT
#	Modification time:	15. 06. 2019 21:09

#	Program:	/corina/corina34_cracker 3.40 0067  02.08.2006

@<TRIPOS>MOLECULE
ASD07300280
  50   54    0    0    0
SMALL
NO_CHARGES


@<TRIPOS>ATOM
   1 C1             0.8551     1.8885     0.3757 C.ar    
   2 C2             0.9944     0.5066     0.2139 C.ar    
   3 C3             2.2485    -0.0241    -0.0485 C.ar    
   4 C4             3.3238     0.8477    -0.1406 C.ar    
   5 C5             3.1134     2.2030     0.0304 C.ar    
   6 N6             1.9096     2.6813     0.2788 N.ar    
   7 C7            -1.1411     0.9467     0.6241 C.2     
   8 N8            -0.4910     2.1253     0.6302 N.am    
   9 N9            -0.2716    -0.0498     0.3698 N.am    
  10 O10           -2.3342     0.8037     0.8151 O.2     
  11 C11            2.4383    -1.5083    -0.2284 C.3     
  12 F12            3.7985    -1.7872    -0.3993 F       
  13 F13            1.9632    -2.1797     0.9032 F       
  14 F14            1.7293    -1.9357    -1.3562 F       
  15 C15           -1.0737     3.3812     0.8554 C.ar    
  16 C16           -2.4369     3.4806     1.0991 C.ar    
  17 C17           -3.0099     4.7170     1.3212 C.ar    
  18 C18           -2.2237     5.8600     1.3009 C.ar    
  19 C19           -0.8614     5.7612     1.0569 C.ar    
  20 C20           -0.2865     4.5247     0.8404 C.ar    
  21 O21           -2.7884     7.0773     1.5197 O.3     
  22 C22           -3.5963     8.6526     4.5656 C.ar    
  23 C23           -3.1749     7.3729     4.9693 C.ar    
  24 C24           -3.1792     7.0568     6.3305 C.ar    
  25 C25           -3.6008     8.0244     7.2240 C.ar    
  26 C26           -4.0015     9.2628     6.7508 C.ar    
  27 N27           -3.9899     9.5410     5.4627 N.ar    
  28 C28           -3.0242     7.4472     2.7992 C.2     
  29 N29           -3.4900     8.6699     3.1884 N.pl3   
  30 N30           -2.8345     6.6883     3.8473 N.2     
  31 C31           -3.8171     9.7938     2.3075 C.3     
  32 C32           -0.6004    -1.4747     0.2813 C.3     
  33 C33           -0.6491    -2.0752     1.6877 C.3     
  34 H34            4.3155     0.4710    -0.3434 H       
  35 H35            3.9497     2.8826    -0.0410 H       
  36 H36           -3.0490     2.5910     1.1146 H       
  37 H37           -4.0704     4.7945     1.5105 H       
  38 H38           -0.2499     6.6513     1.0405 H       
  39 H39            0.7747     4.4474     0.6553 H       
  40 H40           -2.8624     6.0835     6.6752 H       
  41 H41           -3.6179     7.8157     8.2835 H       
  42 H42           -4.3305    10.0158     7.4516 H       
  43 H43           -2.9326    10.4153     2.1678 H       
  44 H44           -4.1501     9.4135     1.3418 H       
  45 H45           -4.6119    10.3887     2.7574 H       
  46 H46           -1.5716    -1.5944    -0.1987 H       
  47 H47            0.1611    -1.9874    -0.3065 H       
  48 H48           -0.8937    -3.1354     1.6218 H       
  49 H49            0.3222    -1.9556     2.1677 H       
  50 H50           -1.4105    -1.5625     2.2755 H       
@<TRIPOS>BOND
   1    1    2 ar
   2    1    6 ar
   3    1    8 1
   4    2    3 ar
   5    2    9 1
   6    3    4 ar
   7    3   11 1
   8    4    5 ar
   9    4   34 1
  10    5    6 ar
  11    5   35 1
  12    7    8 am
  13    7    9 am
  14    7   10 2
  15    8   15 1
  16    9   32 1
  17   11   12 1
  18   11   13 1
  19   11   14 1
  20   15   16 ar
  21   15   20 ar
  22   16   17 ar
  23   16   36 1
  24   17   18 ar
  25   17   37 1
  26   18   19 ar
  27   18   21 1
  28   19   20 ar
  29   19   38 1
  30   20   39 1
  31   21   28 1
  32   22   23 ar
  33   22   27 ar
  34   22   29 1
  35   23   24 ar
  36   23   30 1
  37   24   25 ar
  38   24   40 1
  39   25   26 ar
  40   25   41 1
  41   26   27 ar
  42   26   42 1
  43   28   29 1
  44   28   30 2
  45   29   31 1
  46   31   43 1
  47   31   44 1
  48   31   45 1
  49   32   33 1
  50   32   46 1
  51   32   47 1
  52   33   48 1
  53   33   49 1
  54   33   50 1

#	End of record

