#	Name: ASD02030757
#	Creating user name:	WinNT
#	Creation time:	15. 06. 2019 20:16

#	Modifying user name:	WinNT
#	Modification time:	15. 06. 2019 20:16

#	Program:	/corina/corina34_cracker 3.40 0067  02.08.2006

@<TRIPOS>MOLECULE
ASD02030757
  42   42    0    0    0
SMALL
NO_CHARGES


@<TRIPOS>ATOM
   1 C1            -0.0187     1.5258     0.0104 C.3     
   2 C2             0.0021    -0.0041     0.0020 C.3     
   3 C3            -1.4333    -0.5336     0.0129 C.3     
   4 C4            -2.1494    -0.0402     1.2717 C.3     
   5 C5            -2.1702     1.4896     1.2801 C.3     
   6 C6            -0.7348     2.0192     1.2692 C.3     
   7 C7            -3.5848    -0.5698     1.2825 C.3     
   8 C8            -1.4095    -0.5471     2.5112 C.3     
   9 N9             1.3557     2.0329     0.0000 N.am    
  10 C10            1.6171     3.2612    -0.4892 C.2     
  11 C11            3.0309     3.7828    -0.4999 C.3     
  12 O12            0.7146     3.9467    -0.9208 O.2     
  13 N13            3.1421     4.8763    -1.4745 N.3     
  14 C14            3.3935     4.3021     0.8929 C.3     
  15 C15            4.8662     4.7162     0.9154 C.3     
  16 C16            5.2233     5.2277     2.2872 C.2     
  17 O17            6.4718     5.6498     2.5421 O.3     
  18 O18            4.3859     5.2580     3.1576 O.2     
  19 H19           -0.5459     1.8868    -0.8726 H       
  20 H20            0.5123    -0.3556    -0.8948 H       
  21 H21            0.5293    -0.3651     0.8851 H       
  22 H22           -1.9605    -0.1726    -0.8702 H       
  23 H23           -1.4185    -1.6235     0.0069 H       
  24 H24           -2.6974     1.8507     0.3970 H       
  25 H25           -2.6804     1.8411     2.1769 H       
  26 H26           -0.2076     1.6581     2.1523 H       
  27 H27           -0.7496     3.1091     1.2752 H       
  28 H28           -3.5700    -1.6597     1.2765 H       
  29 H29           -4.0950    -0.2183     2.1793 H       
  30 H30           -4.1120    -0.2087     0.3995 H       
  31 H31           -0.3869    -0.1698     2.5035 H       
  32 H32           -1.9196    -0.1955     3.4080 H       
  33 H33           -1.3947    -1.6369     2.5052 H       
  34 H34            2.0776     1.4846     0.3452 H       
  35 H35            3.7128     2.9787    -0.7767 H       
  36 H36            2.9703     4.5443    -2.4116 H       
  37 H37            2.5192     5.6346    -1.2397 H       
  38 H38            2.7702     5.1634     1.1331 H       
  39 H39            3.2259     3.5157     1.6288 H       
  40 H40            5.4895     3.8549     0.6751 H       
  41 H41            5.0338     5.5026     0.1794 H       
  42 H42            6.6532     5.9691     3.4367 H       
@<TRIPOS>BOND
   1    1    2 1
   2    1    9 1
   3    1    6 1
   4    1   19 1
   5    2    3 1
   6    2   20 1
   7    2   21 1
   8    3    4 1
   9    3   22 1
  10    3   23 1
  11    4    5 1
  12    4    7 1
  13    4    8 1
  14    5    6 1
  15    5   24 1
  16    5   25 1
  17    6   26 1
  18    6   27 1
  19    7   28 1
  20    7   29 1
  21    7   30 1
  22    8   31 1
  23    8   32 1
  24    8   33 1
  25    9   10 am
  26    9   34 1
  27   10   11 1
  28   10   12 2
  29   11   13 1
  30   11   14 1
  31   11   35 1
  32   13   36 1
  33   13   37 1
  34   14   15 1
  35   14   38 1
  36   14   39 1
  37   15   16 1
  38   15   40 1
  39   15   41 1
  40   16   17 1
  41   16   18 2
  42   17   42 1

#	End of record

