#	Name: ASD01912385
#	Creating user name:	WinNT
#	Creation time:	15. 06. 2019 19:59

#	Modifying user name:	WinNT
#	Modification time:	15. 06. 2019 19:59

#	Program:	/corina/corina34_cracker 3.40 0067  02.08.2006

@<TRIPOS>MOLECULE
ASD01912385
  40   42    0    0    0
SMALL
NO_CHARGES


@<TRIPOS>ATOM
   1 C1            -0.0790     1.2333     0.1585 C.ar    
   2 C2             0.1525     0.2506    -0.7990 C.ar    
   3 C3             1.4318    -0.2522    -0.9510 C.ar    
   4 C4             2.4409     0.2463    -0.1373 C.ar    
   5 C5             2.1403     1.2214     0.7921 C.ar    
   6 N6             0.9100     1.6828     0.9153 N.ar    
   7 N7            -0.8618    -0.2078    -1.5716 N.pl3   
   8 O8            -0.6741    -1.1395    -2.3334 O.2     
   9 O9            -1.9614     0.3119    -1.5045 O.2     
  10 N10           -1.3588     1.7517     0.3180 N.3     
  11 C11           -1.3103     3.1845     0.6354 C.3     
  12 C12           -2.7252     3.7701     0.5634 C.3     
  13 C13           -3.6266     2.9430     1.4561 C.2     
  14 C14           -3.5777     1.4368     1.3071 C.3     
  15 C15           -2.1086     0.9995     1.3318 C.3     
  16 C16           -4.4352     3.5212     2.3432 C.2     
  17 C17           -5.2776     2.7160     3.1754 C.1     
  18 C18           -5.9683     2.0559     3.8577 C.1     
  19 C19           -6.8107     1.2507     4.6899 C.ar    
  20 C20           -7.6567     1.8625     5.6185 C.ar    
  21 C21           -8.4651     1.0715     6.4153 C.ar    
  22 C22           -8.4050    -0.3061     6.2614 C.ar    
  23 C23           -7.5433    -0.8493     5.3209 C.ar    
  24 N24           -6.7860    -0.0741     4.5693 N.ar    
  25 F25           -7.4824    -2.1903     5.1686 F       
  26 H26            1.6414    -1.0156    -1.6856 H       
  27 H27            3.4506    -0.1255    -0.2307 H       
  28 H28            2.9220     1.6119     1.4268 H       
  29 H29           -0.9111     3.3209     1.6404 H       
  30 H30           -0.6688     3.6945    -0.0833 H       
  31 H31           -2.7134     4.8036     0.9094 H       
  32 H32           -3.0879     3.7298    -0.4637 H       
  33 H33           -4.1147     0.9682     2.1318 H       
  34 H34           -4.0319     1.1462     0.3598 H       
  35 H35           -2.0431    -0.0668     1.1156 H       
  36 H36           -1.6869     1.1975     2.3172 H       
  37 H37           -4.4553     4.5971     2.4346 H       
  38 H38           -7.6790     2.9381     5.7132 H       
  39 H39           -9.1287     1.5169     7.1418 H       
  40 H40           -9.0237    -0.9496     6.8692 H       
@<TRIPOS>BOND
   1    1    2 ar
   2    1    6 ar
   3    1   10 1
   4    2    3 ar
   5    2    7 1
   6    3    4 ar
   7    3   26 1
   8    4    5 ar
   9    4   27 1
  10    5    6 ar
  11    5   28 1
  12    7    8 2
  13    7    9 2
  14   10   11 1
  15   10   15 1
  16   11   12 1
  17   11   29 1
  18   11   30 1
  19   12   13 1
  20   12   31 1
  21   12   32 1
  22   13   14 1
  23   13   16 2
  24   14   15 1
  25   14   33 1
  26   14   34 1
  27   15   35 1
  28   15   36 1
  29   16   17 1
  30   16   37 1
  31   17   18 3
  32   18   19 1
  33   19   20 ar
  34   19   24 ar
  35   20   21 ar
  36   20   38 1
  37   21   22 ar
  38   21   39 1
  39   22   23 ar
  40   22   40 1
  41   23   24 ar
  42   23   25 1

#	End of record

