#	Name: ASD00844499
#	Creating user name:	WinNT
#	Creation time:	15. 06. 2019 18:50

#	Modifying user name:	WinNT
#	Modification time:	15. 06. 2019 18:50

#	Program:	/corina/corina34_cracker 3.40 0067  02.08.2006

@<TRIPOS>MOLECULE
ASD00844499
  93   98    0    0    0
SMALL
NO_CHARGES


@<TRIPOS>ATOM
   1 F1            -0.0943    -3.1549     4.7135 F       
   2 C2            -0.0057     1.3862     0.0349 C.ar    
   3 C3             0.0090    -0.0007     0.0178 C.ar    
   4 C4             1.2191    -0.6792    -0.0020 C.ar    
   5 C5             2.4058     0.0276    -0.0045 C.ar    
   6 C6             2.3885     1.4103     0.0130 C.ar    
   7 C7             1.1841     2.0886     0.0323 C.ar    
   8 C8             1.2387    -2.1859    -0.0201 C.3     
   9 C9             0.4942    -2.7114    -1.2289 C.2     
  10 N10            2.6179    -2.6801    -0.0120 N.am    
  11 C11            3.4634    -2.3342    -1.0029 C.2     
  12 N12            4.7590    -2.7005    -0.9417 N.am    
  13 O13            3.0575    -1.6918    -1.9520 O.2     
  14 C14            5.6727    -2.4339    -2.0631 C.3     
  15 C15            6.9193    -1.7288    -1.5183 C.3     
  16 N16            7.4922    -2.5277    -0.4268 N.3     
  17 C17            6.5583    -2.6350     0.7020 C.3     
  18 C18            5.2982    -3.3718     0.2507 C.3     
  19 C19            8.7825    -1.9764     0.0081 C.3     
  20 C20            9.2885    -2.7566     1.2245 C.3     
  21 C21           10.6607    -2.2177     1.6354 C.3     
  22 N22           11.5993    -2.3600     0.5151 N.3     
  23 C23           11.1586    -1.5811    -0.6491 C.3     
  24 C24            9.8013    -2.1009    -1.1282 C.3     
  25 C25           12.9604    -1.9811     0.9173 C.3     
  26 O26            0.7736    -2.5082    -2.3916 O.2     
  27 N27           -0.5341    -3.4457    -0.7720 N.am    
  28 C28            0.4679    -2.7397     1.1562 C.ar    
  29 C29           -0.5781    -3.4826     0.6233 C.ar    
  30 C30            0.6325    -2.6279     2.5186 C.ar    
  31 C31           -0.2523    -3.2616     3.3761 C.ar    
  32 C32           -1.3004    -4.0061     2.8563 C.ar    
  33 C33           -1.4652    -4.1180     1.4891 C.ar    
  34 F34           -2.1643    -4.6248     3.6906 F       
  35 C35           -0.9916    -5.8320    -2.0646 C.ar    
  36 C36            0.1863    -5.9890    -2.7801 C.ar    
  37 C37           -1.6654    -6.9423    -1.5932 C.ar    
  38 C38           -1.1664    -8.2089    -1.8338 C.ar    
  39 C39            0.0078    -8.3681    -2.5468 C.ar    
  40 C40            0.6849    -7.2613    -3.0205 C.ar    
  41 H41            0.3956    -9.3586    -2.7334 H       
  42 O42            0.8507    -4.8985    -3.2451 O.3     
  43 C43            2.0569    -5.1356    -3.9738 C.3     
  44 C44           13.9287    -2.2597    -0.2341 C.3     
  45 C45           12.9940    -0.4910     1.2627 C.3     
  46 O46           -1.1600    -0.6938     0.0208 O.3     
  47 C47           -2.3673     0.0704     0.0420 C.3     
  48 C48           -3.5697    -0.8756     0.0423 C.3     
  49 F49           -3.5398    -1.6682    -1.1102 F       
  50 F50           -3.5173    -1.6962     1.1741 F       
  51 S51           -1.6242    -4.2177    -1.7508 S.o2    
  52 O52           -2.8040    -4.3922    -0.9782 O.2     
  53 O53           -1.6041    -3.5302    -2.9943 O.2     
  54 H54           -0.9464     1.9167     0.0458 H       
  55 H55            3.3481    -0.5000    -0.0199 H       
  56 H56            3.3175     1.9611     0.0117 H       
  57 H57            1.1733     3.1685     0.0460 H       
  58 H58            2.9224    -3.2562     0.7064 H       
  59 H59            5.9600    -3.3746    -2.5329 H       
  60 H60            5.1789    -1.7926    -2.7932 H       
  61 H61            7.6547    -1.6222    -2.3158 H       
  62 H62            6.6446    -0.7432    -1.1422 H       
  63 H63            7.0318    -3.1857     1.5148 H       
  64 H64            6.2886    -1.6369     1.0471 H       
  65 H65            4.5572    -3.3533     1.0498 H       
  66 H66            5.5467    -4.4035     0.0017 H       
  67 H67            8.6589    -0.9266     0.2743 H       
  68 H68            8.5880    -2.6366     2.0510 H       
  69 H69            9.3738    -3.8129     0.9696 H       
  70 H70           10.5720    -1.1649     1.9035 H       
  71 H71           11.0302    -2.7807     2.4925 H       
  72 H72           11.0676    -0.5313    -0.3703 H       
  73 H73           11.8897    -1.6816    -1.4513 H       
  74 H74            9.8946    -3.1469    -1.4202 H       
  75 H75            9.4671    -1.5124    -1.9826 H       
  76 H76           13.2566    -2.5631     1.7901 H       
  77 H77            1.4506    -2.0472     2.9184 H       
  78 H78           -2.2838    -4.6991     1.0908 H       
  79 H79           -2.5826    -6.8206    -1.0361 H       
  80 H80           -1.6942    -9.0755    -1.4639 H       
  81 H81            1.6014    -7.3862    -3.5780 H       
  82 H82            1.8372    -5.7416    -4.8528 H       
  83 H83            2.4854    -4.1835    -4.2867 H       
  84 H84            2.7680    -5.6626    -3.3376 H       
  85 H85           14.9386    -1.9786     0.0644 H       
  86 H86           13.9048    -3.3213    -0.4801 H       
  87 H87           13.6324    -1.6778    -1.1068 H       
  88 H88           12.3042    -0.2925     2.0829 H       
  89 H89           14.0039    -0.2098     1.5611 H       
  90 H90           12.6977     0.0910     0.3899 H       
  91 H91           -2.3906     0.6879     0.9399 H       
  92 H92           -2.4082     0.7097    -0.8398 H       
  93 H93           -4.4906    -0.2927     0.0585 H       
@<TRIPOS>BOND
   1    1   31 1
   2    2    3 ar
   3    2    7 ar
   4    2   54 1
   5    3    4 ar
   6    3   46 1
   7    4    5 ar
   8    4    8 1
   9    5    6 ar
  10    5   55 1
  11    6    7 ar
  12    6   56 1
  13    7   57 1
  14    8    9 1
  15    8   10 1
  16    8   28 1
  17    9   26 2
  18    9   27 am
  19   10   11 am
  20   10   58 1
  21   11   12 am
  22   11   13 2
  23   12   14 1
  24   12   18 1
  25   14   15 1
  26   14   59 1
  27   14   60 1
  28   15   16 1
  29   15   61 1
  30   15   62 1
  31   16   17 1
  32   16   19 1
  33   17   18 1
  34   17   63 1
  35   17   64 1
  36   18   65 1
  37   18   66 1
  38   19   20 1
  39   19   24 1
  40   19   67 1
  41   20   21 1
  42   20   68 1
  43   20   69 1
  44   21   22 1
  45   21   70 1
  46   21   71 1
  47   22   23 1
  48   22   25 1
  49   23   24 1
  50   23   72 1
  51   23   73 1
  52   24   74 1
  53   24   75 1
  54   25   44 1
  55   25   45 1
  56   25   76 1
  57   27   51 am
  58   27   29 1
  59   28   29 ar
  60   28   30 ar
  61   29   33 ar
  62   30   31 ar
  63   30   77 1
  64   31   32 ar
  65   32   33 ar
  66   32   34 1
  67   33   78 1
  68   35   36 ar
  69   35   37 ar
  70   35   51 1
  71   36   42 1
  72   36   40 ar
  73   37   38 ar
  74   37   79 1
  75   38   39 ar
  76   38   80 1
  77   39   40 ar
  78   39   41 1
  79   40   81 1
  80   42   43 1
  81   43   82 1
  82   43   83 1
  83   43   84 1
  84   44   85 1
  85   44   86 1
  86   44   87 1
  87   45   88 1
  88   45   89 1
  89   45   90 1
  90   46   47 1
  91   47   48 1
  92   47   91 1
  93   47   92 1
  94   48   49 1
  95   48   50 1
  96   48   93 1
  97   51   52 2
  98   51   53 2

#	End of record

