#	Name: ASD00360003
#	Creating user name:	WinNT
#	Creation time:	15. 06. 2019 18:35

#	Modifying user name:	WinNT
#	Modification time:	15. 06. 2019 18:35

#	Program:	/corina/corina34_cracker 3.40 0067  02.08.2006

@<TRIPOS>MOLECULE
ASD00360003
  25   25    0    0    0
SMALL
NO_CHARGES


@<TRIPOS>ATOM
   1 C1            -0.0189     1.5457     0.0105 C.3     
   2 C2             0.0021    -0.0041     0.0020 C.3     
   3 C3             1.2062    -0.3070    -0.9227 C.3     
   4 C4             2.0378     0.9901    -0.8970 C.3     
   5 O5             1.3803     1.9016    -0.0009 O.3     
   6 C6             3.4509     0.6921    -0.3915 C.3     
   7 O7             0.7589    -0.5881    -2.2504 O.3     
   8 O8            -1.2082    -0.5275    -0.5487 O.3     
   9 O9             2.0971     1.5554    -2.2081 O.3     
  10 O10            4.2141     1.9001    -0.3712 O.3     
  11 P11            5.7501     1.9589     0.1077 P.3     
  12 O12            6.3277     3.4438    -0.1233 O.3     
  13 O13            5.8395     1.5854     1.6712 O.3     
  14 O14            6.5489     0.9912    -0.6772 O.2     
  15 H15           -0.5194     1.9277    -0.8792 H       
  16 H16           -0.5023     1.9181     0.9138 H       
  17 H17            0.1732    -0.3963     1.0045 H       
  18 H18            1.7880    -1.1411    -0.5305 H       
  19 H19            3.3969     0.2795     0.6159 H       
  20 H20            3.9293    -0.0289    -1.0543 H       
  21 H21            0.1826    -1.3619    -2.3158 H       
  22 H22           -2.0025    -0.2869    -0.0524 H       
  23 H23            2.6071     2.3753    -2.2602 H       
  24 H24            7.2507     3.5528     0.1438 H       
  25 H25            5.3383     2.1793     2.2467 H       
@<TRIPOS>BOND
   1    1    2 1
   2    1    5 1
   3    1   15 1
   4    1   16 1
   5    2    3 1
   6    2    8 1
   7    2   17 1
   8    3    4 1
   9    3    7 1
  10    3   18 1
  11    4    5 1
  12    4    6 1
  13    4    9 1
  14    6   10 1
  15    6   19 1
  16    6   20 1
  17    7   21 1
  18    8   22 1
  19    9   23 1
  20   10   11 1
  21   11   12 1
  22   11   13 1
  23   11   14 2
  24   12   24 1
  25   13   25 1

#	End of record

