#	Name: ASD01140628
#	Creating user name:	WinNT
#	Creation time:	15. 06. 2019 19:01

#	Modifying user name:	WinNT
#	Modification time:	15. 06. 2019 19:01

#	Program:	/corina/corina34_cracker 3.40 0067  02.08.2006

@<TRIPOS>MOLECULE
ASD01140628
  42   45    0    0    0
SMALL
NO_CHARGES


@<TRIPOS>ATOM
   1 C1            -0.0016     1.3414    -0.1883 C.2     
   2 C2             0.0204    -0.0173    -0.1305 C.2     
   3 C3             1.2455    -0.6877     0.0218 C.2     
   4 C4             2.3971     0.0101     0.1108 C.2     
   5 C5             1.2099     2.0568    -0.0940 C.2     
   6 N6             1.4799     3.3535    -0.1195 N.2     
   7 N7             2.3900     1.3742     0.0547 N.pl3   
   8 C8             3.3899     2.3041     0.1188 C.2     
   9 C9             2.8046     3.5292     0.0085 C.2     
  10 C10            3.5106     4.8345     0.0264 C.ar    
  11 C11            4.7074     4.9911    -0.6697 C.ar    
  12 C12            5.3605     6.2064    -0.6503 C.ar    
  13 C13            4.8279     7.2701     0.0599 C.ar    
  14 C14            3.6381     7.1187     0.7534 C.ar    
  15 C15            2.9755     5.9085     0.7347 C.ar    
  16 C16            4.8622     2.0262     0.2804 C.3     
  17 N17            5.4533     1.7473    -1.0306 N.am    
  18 C18            6.7683     1.4693    -1.1316 C.2     
  19 C19            7.3764     1.1823    -2.4803 C.3     
  20 O20            7.4621     1.4500    -0.1371 O.2     
  21 C21            1.2737    -2.1930     0.0868 C.3     
  22 F22            5.4708     8.4582     0.0766 F       
  23 C23            8.8741     0.8738    -2.5287 C.3     
  24 C24            7.8549    -0.2456    -2.7501 C.3     
  25 H25           -0.9372     1.8670    -0.3098 H       
  26 H26           -0.8998    -0.5782    -0.2011 H       
  27 H27            3.3333    -0.5155     0.2278 H       
  28 H28            5.1235     4.1624    -1.2233 H       
  29 H29            6.2884     6.3286    -1.1893 H       
  30 H30            3.2264     7.9504     1.3058 H       
  31 H31            2.0457     5.7927     1.2719 H       
  32 H32            5.3498     2.8957     0.7213 H       
  33 H33            4.9997     1.1633     0.9320 H       
  34 H34            4.8984     1.7627    -1.8261 H       
  35 H35            6.9495     1.7368    -3.3160 H       
  36 H36            0.2583    -2.5796    -0.0007 H       
  37 H37            1.8817    -2.5806    -0.7307 H       
  38 H38            1.7015    -2.5077     1.0386 H       
  39 H39            9.4326     1.2249    -3.3964 H       
  40 H40            9.4197     0.8783    -1.5850 H       
  41 H41            7.7299    -0.9775    -1.9521 H       
  42 H42            7.7428    -0.6310    -3.7635 H       
@<TRIPOS>BOND
   1    1    2 2
   2    1    5 1
   3    1   25 1
   4    2    3 1
   5    2   26 1
   6    3    4 2
   7    3   21 1
   8    4    7 1
   9    4   27 1
  10    5    7 1
  11    5    6 2
  12    6    9 1
  13    7    8 1
  14    8    9 2
  15    8   16 1
  16    9   10 1
  17   10   11 ar
  18   10   15 ar
  19   11   12 ar
  20   11   28 1
  21   12   13 ar
  22   12   29 1
  23   13   14 ar
  24   13   22 1
  25   14   15 ar
  26   14   30 1
  27   15   31 1
  28   16   17 1
  29   16   32 1
  30   16   33 1
  31   17   18 am
  32   17   34 1
  33   18   19 1
  34   18   20 2
  35   19   23 1
  36   19   24 1
  37   19   35 1
  38   21   36 1
  39   21   37 1
  40   21   38 1
  41   23   24 1
  42   23   39 1
  43   23   40 1
  44   24   41 1
  45   24   42 1

#	End of record

