#	Name: ASD02198845
#	Creating user name:	WinNT
#	Creation time:	15. 06. 2019 20:20

#	Modifying user name:	WinNT
#	Modification time:	15. 06. 2019 20:20

#	Program:	/corina/corina34_cracker 3.40 0067  02.08.2006

@<TRIPOS>MOLECULE
ASD02198845
  54   58    0    0    0
SMALL
NO_CHARGES


@<TRIPOS>ATOM
   1 F1             2.2521    -1.7107     2.4721 F       
   2 C2            -0.0436     1.5036    -0.1141 C.2     
   3 C3            -0.0738     0.1639     0.0986 C.2     
   4 N4             1.0702    -0.5381     0.2609 N.pl3   
   5 N5             2.2349    -0.0038     0.2266 N.2     
   6 C6             2.4068     1.2857     0.0281 C.2     
   7 C7             1.2214     2.1372    -0.1599 C.2     
   8 C8             0.9782    -1.9173     0.4776 C.ar    
   9 C9             1.5790    -2.4879     1.5957 C.ar    
  10 C10            1.4868    -3.8504     1.8087 C.ar    
  11 C11            0.7950    -4.6484     0.9071 C.ar    
  12 C12            0.1959    -4.0780    -0.2092 C.ar    
  13 C13            0.2822    -2.7171    -0.4202 C.ar    
  14 C14            3.7640     1.8675    -0.0049 C.2     
  15 N15            4.3060     2.6072    -1.0182 N.pl3   
  16 N16            5.6082     2.9580    -0.6409 N.2     
  17 C17            5.8522     2.4583     0.5443 C.2     
  18 C18            4.7199     1.7717     0.9826 C.2     
  19 C19            3.6727     2.9522    -2.2189 C.ar    
  20 C20            2.9098     2.0111    -2.8980 C.ar    
  21 C21            2.2847     2.3516    -4.0822 C.ar    
  22 C22            2.4168     3.6282    -4.5939 C.ar    
  23 C23            3.1781     4.5728    -3.9195 C.ar    
  24 C24            3.8022     4.2366    -2.7287 C.ar    
  25 O25            1.3247     3.3402    -0.3479 O.2     
  26 N26            0.7016    -6.0281     1.1227 N.am    
  27 C27            0.0024    -6.9847     0.2511 C.3     
  28 C28            0.2137    -8.3412     0.9510 C.3     
  29 O29            1.0015    -8.0102     2.1311 O.3     
  30 C30            1.2395    -6.6939     2.1538 C.2     
  31 O31            1.8780    -6.1505     3.0334 O.2     
  32 C32            7.1411     2.6059     1.3111 C.3     
  33 O33            3.3074     5.8280    -4.4242 O.3     
  34 C34            2.6326     6.1059    -5.6528 C.3     
  35 F35            1.2579     5.9081    -5.4850 F       
  36 F36            2.8707     7.4331    -6.0257 F       
  37 F37            3.1087     5.2486    -6.6506 F       
  38 H38           -0.9548     2.0675    -0.2486 H       
  39 H39           -1.0238    -0.3482     0.1391 H       
  40 H40            1.9529    -4.2943     2.6759 H       
  41 H41           -0.3416    -4.6996    -0.9100 H       
  42 H42           -0.1842    -2.2747    -1.2881 H       
  43 H43            4.6140     1.2526     1.9238 H       
  44 H44            2.8052     1.0124    -2.5003 H       
  45 H45            1.6921     1.6183    -4.6090 H       
  46 H46            1.9273     3.8913    -5.5200 H       
  47 H47            4.3947     4.9704    -2.2024 H       
  48 H48           -1.0594    -6.7449     0.1936 H       
  49 H49            0.4484    -6.9934    -0.7434 H       
  50 H50           -0.7435    -8.7753     1.2400 H       
  51 H51            0.7639    -9.0237     0.3033 H       
  52 H52            7.0940     3.5005     1.9322 H       
  53 H53            7.2893     1.7313     1.9445 H       
  54 H54            7.9723     2.6928     0.6113 H       
@<TRIPOS>BOND
   1    1    9 1
   2    2    3 2
   3    2    7 1
   4    2   38 1
   5    3    4 1
   6    3   39 1
   7    4    5 1
   8    4    8 1
   9    5    6 2
  10    6    7 1
  11    6   14 1
  12    7   25 2
  13    8    9 ar
  14    8   13 ar
  15    9   10 ar
  16   10   11 ar
  17   10   40 1
  18   11   12 ar
  19   11   26 1
  20   12   13 ar
  21   12   41 1
  22   13   42 1
  23   14   15 1
  24   14   18 2
  25   15   16 1
  26   15   19 1
  27   16   17 2
  28   17   18 1
  29   17   32 1
  30   18   43 1
  31   19   20 ar
  32   19   24 ar
  33   20   21 ar
  34   20   44 1
  35   21   22 ar
  36   21   45 1
  37   22   23 ar
  38   22   46 1
  39   23   24 ar
  40   23   33 1
  41   24   47 1
  42   26   27 1
  43   26   30 am
  44   27   28 1
  45   27   48 1
  46   27   49 1
  47   28   29 1
  48   28   50 1
  49   28   51 1
  50   29   30 1
  51   30   31 2
  52   32   52 1
  53   32   53 1
  54   32   54 1
  55   33   34 1
  56   34   35 1
  57   34   36 1
  58   34   37 1

#	End of record

