#	Name: ASD01000152
#	Creating user name:	WinNT
#	Creation time:	15. 06. 2019 18:54

#	Modifying user name:	WinNT
#	Modification time:	15. 06. 2019 18:54

#	Program:	/corina/corina34_cracker 3.40 0067  02.08.2006

@<TRIPOS>MOLECULE
ASD01000152
  51   54    0    0    0
SMALL
NO_CHARGES


@<TRIPOS>ATOM
   1 C1             0.0877     1.4298    -0.2895 C.ar    
   2 C2            -2.4917    -0.3597    -0.2812 C.ar    
   3 C3            -0.0104    -0.0171     0.0005 C.3     
   4 C4             0.7218     4.0542    -0.9450 C.ar    
   5 C5            -0.5752     3.6202    -0.8633 C.ar    
   6 C6            -0.9008     2.2935    -0.4955 C.ar    
   7 C7             1.4272     1.8715    -0.3475 C.ar    
   8 C8             1.7459     3.1674    -0.6652 C.ar    
   9 C9            -3.5871    -1.2280    -0.0560 C.ar    
  10 C10           -3.4190    -2.5038     0.4140 C.ar    
  11 C11           -2.1407    -2.9616     0.6778 C.ar    
  12 C12           -1.0830    -2.1095     0.4819 C.ar    
  13 C13           -1.2729    -0.7891     0.0223 C.ar    
  14 C14            0.8920    -0.7092    -0.9883 C.ar    
  15 C15            0.6580    -0.5810    -2.3447 C.ar    
  16 C16            1.4853    -1.2155    -3.2520 C.ar    
  17 C17            2.5478    -1.9791    -2.8025 C.ar    
  18 C18            2.7816    -2.1070    -1.4449 C.ar    
  19 C19            1.9569    -1.4674    -0.5387 C.ar    
  20 S20            0.7655    -0.2659     1.6212 S.3     
  21 C21           -0.3352     0.6390     2.7438 C.3     
  22 C22            0.1096     0.4090     4.1895 C.3     
  23 C23           -0.8048     1.1607     5.1221 C.2     
  24 N24            0.0509    -1.0261     4.4975 N.3     
  25 O25           -0.6323     2.4780     5.3139 O.3     
  26 O26           -1.6932     0.5777     5.6971 O.2     
  27 C27           -2.4018     2.1723    -0.3370 C.3     
  28 C28           -2.9930     0.9222    -0.9089 C.3     
  29 Cl29           3.5871    -2.7768    -3.9415 Cl      
  30 H30            0.9415     5.0742    -1.2239 H       
  31 H31           -1.3737     4.3123    -1.0866 H       
  32 H32            2.2217     1.1712    -0.1359 H       
  33 H33            2.7764     3.4891    -0.6959 H       
  34 H34           -4.5864    -0.8734    -0.2609 H       
  35 H35           -4.2736    -3.1437     0.5768 H       
  36 H36           -1.9783    -3.9692     1.0310 H       
  37 H37           -0.0811    -2.4578     0.6848 H       
  38 H38           -0.1717     0.0148    -2.6954 H       
  39 H39            1.3021    -1.1156    -4.3117 H       
  40 H40            3.6109    -2.7029    -1.0934 H       
  41 H41            2.1419    -1.5636     0.5210 H       
  42 H42           -0.2916     1.7039     2.5153 H       
  43 H43           -1.3571     0.2817     2.6169 H       
  44 H44            1.1316     0.7663     4.3164 H       
  45 H45            0.4010    -1.2115     5.4255 H       
  46 H46           -0.8869    -1.3816     4.3871 H       
  47 H47           -1.2435     2.9169     5.9213 H       
  48 H48           -2.6403     2.2113     0.7259 H       
  49 H49           -2.8699     3.0284    -0.8228 H       
  50 H50           -2.7716     0.8931    -1.9758 H       
  51 H51           -4.0753     0.9656    -0.7866 H       
@<TRIPOS>BOND
   1    1    3 1
   2    1    7 ar
   3    1    6 ar
   4    2    9 ar
   5    2   13 ar
   6    2   28 1
   7    3   14 1
   8    3   20 1
   9    3   13 1
  10    4    5 ar
  11    4    8 ar
  12    4   30 1
  13    5    6 ar
  14    5   31 1
  15    6   27 1
  16    7    8 ar
  17    7   32 1
  18    8   33 1
  19    9   10 ar
  20    9   34 1
  21   10   11 ar
  22   10   35 1
  23   11   12 ar
  24   11   36 1
  25   12   13 ar
  26   12   37 1
  27   14   15 ar
  28   14   19 ar
  29   15   16 ar
  30   15   38 1
  31   16   17 ar
  32   16   39 1
  33   17   18 ar
  34   17   29 1
  35   18   19 ar
  36   18   40 1
  37   19   41 1
  38   20   21 1
  39   21   22 1
  40   21   42 1
  41   21   43 1
  42   22   23 1
  43   22   24 1
  44   22   44 1
  45   23   25 1
  46   23   26 2
  47   24   45 1
  48   24   46 1
  49   25   47 1
  50   27   28 1
  51   27   48 1
  52   27   49 1
  53   28   50 1
  54   28   51 1

#	End of record

