#	Name: ASD04880183
#	Creating user name:	WinNT
#	Creation time:	15. 06. 2019 20:53

#	Modifying user name:	WinNT
#	Modification time:	15. 06. 2019 20:53

#	Program:	/corina/corina34_cracker 3.40 0067  02.08.2006

@<TRIPOS>MOLECULE
ASD04880183
  46   47    0    0    0
SMALL
NO_CHARGES


@<TRIPOS>ATOM
   1 C1             0.2279     1.5912    -0.1683 C.2     
   2 C2             0.2368     0.0911    -0.0241 C.3     
   3 O3             1.2742     2.1972    -0.2681 O.2     
   4 N4            -0.9425     2.2590    -0.1919 N.am    
   5 N5            -2.2082     1.6763    -0.1930 N.2     
   6 C6            -3.1779     2.5241    -0.2174 C.2     
   7 C7            -2.6200     3.9293    -0.2378 C.3     
   8 C8            -1.0925     3.7227    -0.2144 C.3     
   9 C9            -4.6109     2.1776    -0.2248 C.ar    
  10 C10           -5.0076     0.8380    -0.2041 C.ar    
  11 C11           -6.3525     0.5187    -0.2107 C.ar    
  12 C12           -7.3089     1.5314    -0.2383 C.ar    
  13 C13           -6.9153     2.8616    -0.2589 C.ar    
  14 C14           -5.5757     3.1880    -0.2467 C.ar    
  15 O15           -8.6309     1.2153    -0.2456 O.3     
  16 C16           -9.5578     2.3026    -0.2744 C.3     
  17 O17           -6.7421    -0.7841    -0.1905 O.3     
  18 C18           -5.7082    -1.7701    -0.1631 C.3     
  19 C19            0.0838    -0.5547    -1.4026 C.3     
  20 C20           -0.0324    -2.0721    -1.2449 C.3     
  21 C21            1.6480     0.1766     2.0359 C.3     
  22 C22            1.5597    -0.3531     0.6033 C.3     
  23 H23           -0.5902    -0.2173     0.6154 H       
  24 H24           -2.9250     4.4486    -1.1463 H       
  25 H25           -2.9415     4.4811     0.6455 H       
  26 H26           -0.6574     4.1667     0.6810 H       
  27 H27           -0.6367     4.1413    -1.1116 H       
  28 H28           -4.2652     0.0539    -0.1834 H       
  29 H29           -7.6601     3.6434    -0.2803 H       
  30 H30           -5.2721     4.2244    -0.2582 H       
  31 H31          -10.5755     1.9124    -0.2774 H       
  32 H32           -9.4111     2.9284     0.6059 H       
  33 H33           -9.3936     2.8963    -1.1736 H       
  34 H34           -6.1546    -2.7644    -0.1491 H       
  35 H35           -5.0824    -1.6652    -1.0494 H       
  36 H36           -5.0988    -1.6328     0.7302 H       
  37 H37           -0.8139    -0.1699    -1.8865 H       
  38 H38            0.9554    -0.3185    -2.0132 H       
  39 H39           -0.1413    -2.5321    -2.2271 H       
  40 H40            0.8653    -2.4569    -0.7610 H       
  41 H41           -0.9039    -2.3082    -0.6344 H       
  42 H42            0.8690    -0.2850     2.6426 H       
  43 H43            2.6252    -0.0660     2.4534 H       
  44 H44            1.5128     1.2582     2.0324 H       
  45 H45            1.6088    -1.4419     0.6148 H       
  46 H46            2.3901     0.0419     0.0180 H       
@<TRIPOS>BOND
   1    1    2 1
   2    1    3 2
   3    1    4 am
   4    2   19 1
   5    2   22 1
   6    2   23 1
   7    4    5 1
   8    4    8 1
   9    5    6 2
  10    6    7 1
  11    6    9 1
  12    7    8 1
  13    7   24 1
  14    7   25 1
  15    8   26 1
  16    8   27 1
  17    9   10 ar
  18    9   14 ar
  19   10   11 ar
  20   10   28 1
  21   11   12 ar
  22   11   17 1
  23   12   13 ar
  24   12   15 1
  25   13   14 ar
  26   13   29 1
  27   14   30 1
  28   15   16 1
  29   16   31 1
  30   16   32 1
  31   16   33 1
  32   17   18 1
  33   18   34 1
  34   18   35 1
  35   18   36 1
  36   19   20 1
  37   19   37 1
  38   19   38 1
  39   20   39 1
  40   20   40 1
  41   20   41 1
  42   21   22 1
  43   21   42 1
  44   21   43 1
  45   21   44 1
  46   22   45 1
  47   22   46 1

#	End of record

