#	Name: ASD01230589
#	Creating user name:	WinNT
#	Creation time:	15. 06. 2019 19:14

#	Modifying user name:	WinNT
#	Modification time:	15. 06. 2019 19:14

#	Program:	/corina/corina34_cracker 3.40 0067  02.08.2006

@<TRIPOS>MOLECULE
ASD01230589
  44   47    0    0    0
SMALL
NO_CHARGES


@<TRIPOS>ATOM
   1 S1            -0.0204     1.6502     0.0111 S.o2    
   2 N2             0.0021    -0.0041     0.0020 N.am    
   3 C3             1.0256    -0.6894    -0.4563 C.2     
   4 N4             2.1713    -0.1507    -0.9688 N.pl3   
   5 C5             2.3936     1.2863    -1.1471 C.3     
   6 C6             1.7498     2.0759    -0.0035 C.3     
   7 C7             0.8928    -2.1077    -0.3981 C.2     
   8 C8             1.9093    -2.9032    -0.8069 C.2     
   9 C9             3.0927    -2.3153    -1.2868 C.2     
  10 C10            3.1981    -0.9765    -1.3566 C.2     
  11 C11           -0.3816    -2.7228     0.1202 C.3     
  12 O12           -0.2734    -4.1472     0.0808 O.3     
  13 C13           -1.3452    -4.8597     0.5173 C.ar    
  14 C14           -1.3113    -6.2439     0.5079 C.ar    
  15 C15           -2.4018    -6.9783     0.9522 C.ar    
  16 C16           -3.5240    -6.3248     1.4119 C.ar    
  17 C17           -3.5594    -4.9362     1.4188 C.ar    
  18 C18           -2.4767    -4.2039     0.9799 C.ar    
  19 O19           -0.6348     2.0061    -1.2198 O.2     
  20 O20           -0.6111     1.9928     1.2573 O.2     
  21 C21           -2.3030    -8.4805     0.8999 C.3     
  22 C22           -3.3587    -9.1201     1.7994 C.3     
  23 C23           -4.7227    -8.5115     1.4535 C.3     
  24 C24           -4.7358    -7.0587     1.9245 C.3     
  25 H25            3.4652     1.4851    -1.1626 H       
  26 H26            1.9560     1.6031    -2.0938 H       
  27 H27            1.8733     3.1452    -0.1748 H       
  28 H28            2.2071     1.7954     0.9453 H       
  29 H29            1.8121    -3.9780    -0.7645 H       
  30 H30            3.9172    -2.9389    -1.5995 H       
  31 H31            4.1135    -0.5393    -1.7270 H       
  32 H32           -0.5496    -2.3995     1.1475 H       
  33 H33           -1.2179    -2.4046    -0.5022 H       
  34 H34           -0.4296    -6.7559     0.1518 H       
  35 H35           -4.4418    -4.4253     1.7748 H       
  36 H36           -2.5110    -3.1246     0.9924 H       
  37 H37           -2.4547    -8.8151    -0.1263 H       
  38 H38           -1.3121    -8.7874     1.2346 H       
  39 H39           -3.3831   -10.1963     1.6286 H       
  40 H40           -3.1214    -8.9190     2.8441 H       
  41 H41           -4.8787    -8.5492     0.3754 H       
  42 H42           -5.5119    -9.0682     1.9588 H       
  43 H43           -4.7366    -7.0341     3.0142 H       
  44 H44           -5.6361    -6.5688     1.5538 H       
@<TRIPOS>BOND
   1    1    2 am
   2    1    6 1
   3    1   19 2
   4    1   20 2
   5    2    3 2
   6    3    4 1
   7    3    7 1
   8    4    5 1
   9    4   10 1
  10    5    6 1
  11    5   25 1
  12    5   26 1
  13    6   27 1
  14    6   28 1
  15    7    8 2
  16    7   11 1
  17    8    9 1
  18    8   29 1
  19    9   10 2
  20    9   30 1
  21   10   31 1
  22   11   12 1
  23   11   32 1
  24   11   33 1
  25   12   13 1
  26   13   14 ar
  27   13   18 ar
  28   14   15 ar
  29   14   34 1
  30   15   16 ar
  31   15   21 1
  32   16   17 ar
  33   16   24 1
  34   17   18 ar
  35   17   35 1
  36   18   36 1
  37   21   22 1
  38   21   37 1
  39   21   38 1
  40   22   23 1
  41   22   39 1
  42   22   40 1
  43   23   24 1
  44   23   41 1
  45   23   42 1
  46   24   43 1
  47   24   44 1

#	End of record

