#	Name: ASD06660210
#	Creating user name:	WinNT
#	Creation time:	15. 06. 2019 21:08

#	Modifying user name:	WinNT
#	Modification time:	15. 06. 2019 21:08

#	Program:	/corina/corina34_cracker 3.40 0067  02.08.2006

@<TRIPOS>MOLECULE
ASD06660210
  70   73    0    0    0
SMALL
NO_CHARGES


@<TRIPOS>ATOM
   1 C1             0.2283     1.4835    -0.1298 C.2     
   2 C2             0.2346    -0.0232    -0.1578 C.3     
   3 C3            -0.7239    -0.5171    -1.2433 C.3     
   4 O4             1.2502     2.0958    -0.3316 O.2     
   5 O5            -0.9137     2.1454     0.1139 O.3     
   6 C6             2.4816    -0.6441     0.5513 C.2     
   7 C7             3.8483    -1.1258     0.2583 C.ar    
   8 C8             4.1300    -2.4926     0.2829 C.ar    
   9 C9             5.4074    -2.9355     0.0081 C.ar    
  10 C10            6.4081    -2.0281    -0.2910 C.ar    
  11 C11            6.1355    -0.6719    -0.3170 C.ar    
  12 C12            4.8611    -0.2162    -0.0498 C.ar    
  13 O13            2.1630    -0.3776     1.6937 O.2     
  14 N14            1.5889    -0.5005    -0.4482 N.am    
  15 C15            4.5645     1.2609    -0.0847 C.3     
  16 C16            7.8013    -2.5191    -0.5892 C.3     
  17 C17            3.0415    -3.4823     0.6095 C.3     
  18 C18           -0.8111    -2.0207    -1.1901 C.ar    
  19 C19           -1.7653    -2.6286    -0.3950 C.ar    
  20 C20           -1.8480    -4.0062    -0.3440 C.ar    
  21 C21           -0.9713    -4.7813    -1.0925 C.ar    
  22 C22           -0.0140    -4.1674    -1.8901 C.ar    
  23 C23            0.0595    -2.7892    -1.9409 C.ar    
  24 N24           -1.0519    -6.1748    -1.0428 N.3     
  25 C25           -2.4534    -6.6195    -0.9323 C.3     
  26 C26           -2.7276    -7.5665    -2.1195 C.3     
  27 C27           -1.3080    -8.0524    -2.5140 C.3     
  28 C28           -0.4591    -6.7833    -2.2529 C.3     
  29 C29           -3.6003    -8.7444    -1.6815 C.3     
  30 N30           -3.9423    -9.5596    -2.8497 N.pl3   
  31 C31           -4.7335   -10.6925    -2.6990 C.ar    
  32 C32           -5.1973   -11.0466    -1.4358 C.ar    
  33 C33           -5.9835   -12.1762    -1.3004 C.ar    
  34 C34           -6.2810   -12.9170    -2.4369 C.ar    
  35 C35           -5.7873   -12.5076    -3.6591 C.ar    
  36 N36           -5.0436   -11.4220    -3.7594 N.ar    
  37 H37           -0.0856    -0.4060     0.8112 H       
  38 H38           -1.7126    -0.0897    -1.0768 H       
  39 H39           -0.3548    -0.2090    -2.2215 H       
  40 H40           -0.8682     3.1113     0.1218 H       
  41 H41            5.6267    -3.9929     0.0268 H       
  42 H42            6.9211     0.0312    -0.5512 H       
  43 H43            1.8432    -0.7133    -1.3598 H       
  44 H44            4.7320     1.6886     0.9038 H       
  45 H45            5.2211     1.7464    -0.8066 H       
  46 H46            3.5258     1.4162    -0.3765 H       
  47 H47            7.9000    -2.7047    -1.6587 H       
  48 H48            8.5258    -1.7645    -0.2830 H       
  49 H49            7.9859    -3.4433    -0.0415 H       
  50 H50            2.5408    -3.7880    -0.3092 H       
  51 H51            3.4780    -4.3561     1.0934 H       
  52 H52            2.3183    -3.0188     1.2804 H       
  53 H53           -2.4464    -2.0254     0.1870 H       
  54 H54           -2.5933    -4.4804     0.2775 H       
  55 H55            0.6691    -4.7670    -2.4733 H       
  56 H56            0.8004    -2.3112    -2.5645 H       
  57 H57           -2.6007    -7.1511     0.0078 H       
  58 H58           -3.1205    -5.7589    -0.9826 H       
  59 H59           -3.1930    -7.0262    -2.9439 H       
  60 H60           -0.9859    -8.8757    -1.8764 H       
  61 H61           -1.2711    -8.3373    -3.5655 H       
  62 H62           -0.5320    -6.0976    -3.0970 H       
  63 H63            0.5812    -7.0534    -2.0710 H       
  64 H64           -3.0540    -9.3531    -0.9610 H       
  65 H65           -4.5137    -8.3683    -1.2208 H       
  66 H66           -3.6167    -9.3088    -3.7283 H       
  67 H67           -4.9463   -10.4477    -0.5729 H       
  68 H68           -6.3575   -12.4759    -0.3325 H       
  69 H69           -6.8922   -13.8045    -2.3651 H       
  70 H70           -6.0162   -13.0807    -4.5454 H       
@<TRIPOS>BOND
   1    1    2 1
   2    1    4 2
   3    1    5 1
   4    2    3 1
   5    2   14 1
   6    2   37 1
   7    3   18 1
   8    3   38 1
   9    3   39 1
  10    5   40 1
  11    6    7 1
  12    6   13 2
  13    6   14 am
  14    7    8 ar
  15    7   12 ar
  16    8    9 ar
  17    8   17 1
  18    9   10 ar
  19    9   41 1
  20   10   11 ar
  21   10   16 1
  22   11   12 ar
  23   11   42 1
  24   12   15 1
  25   14   43 1
  26   15   44 1
  27   15   45 1
  28   15   46 1
  29   16   47 1
  30   16   48 1
  31   16   49 1
  32   17   50 1
  33   17   51 1
  34   17   52 1
  35   18   19 ar
  36   18   23 ar
  37   19   20 ar
  38   19   53 1
  39   20   21 ar
  40   20   54 1
  41   21   22 ar
  42   21   24 1
  43   22   23 ar
  44   22   55 1
  45   23   56 1
  46   24   25 1
  47   24   28 1
  48   25   26 1
  49   25   57 1
  50   25   58 1
  51   26   27 1
  52   26   29 1
  53   26   59 1
  54   27   28 1
  55   27   60 1
  56   27   61 1
  57   28   62 1
  58   28   63 1
  59   29   30 1
  60   29   64 1
  61   29   65 1
  62   30   31 1
  63   30   66 1
  64   31   32 ar
  65   31   36 ar
  66   32   33 ar
  67   32   67 1
  68   33   34 ar
  69   33   68 1
  70   34   35 ar
  71   34   69 1
  72   35   36 ar
  73   35   70 1

#	End of record

