#	Name: ASD09116424
#	Creating user name:	WinNT
#	Creation time:	15. 06. 2019 21:21

#	Modifying user name:	WinNT
#	Modification time:	15. 06. 2019 21:21

#	Program:	/corina/corina34_cracker 3.40 0067  02.08.2006

@<TRIPOS>MOLECULE
ASD09116424
  75   81    0    0    0
SMALL
NO_CHARGES


@<TRIPOS>ATOM
   1 N1             0.0863     2.2775     0.3282 N.2     
   2 N2            -0.7752     3.3176     0.7124 N.pl3   
   3 C3             1.3033     2.7662     0.3350 C.2     
   4 N4             1.2547     4.0524     0.7013 N.2     
   5 C5             0.0070     4.4003     0.9326 C.2     
   6 N6            -0.4281     5.6503     1.3301 N.pl3   
   7 C7            -2.1637     3.2489     0.8411 C.ar    
   8 N8             2.4619     2.0591     0.0129 N.pl3   
   9 C9             3.6906     2.7219    -0.0488 C.ar    
  10 C10            4.8680     2.0292     0.2026 C.ar    
  11 C11            3.7369     4.0742    -0.3675 C.ar    
  12 C12            4.9577     4.7198    -0.4255 C.ar    
  13 C13            6.1182     4.0341    -0.1719 C.ar    
  14 C14            6.0822     2.6860     0.1408 C.ar    
  15 N15           -2.7961     4.0861     1.6497 N.ar    
  16 N16           -4.0711     4.0584     1.8117 N.ar    
  17 C17           -4.8324     3.1830     1.1751 C.ar    
  18 C18           -4.2546     2.2738     0.2844 C.ar    
  19 C19           -2.8868     2.3009     0.1127 C.ar    
  20 C20           -6.2948     3.1132     1.4009 C.ar    
  21 C21           -6.8774     1.8736     1.6693 C.ar    
  22 C22           -6.0024     0.6550     1.7775 C.3     
  23 C23           -5.5676     0.1577     0.4016 C.3     
  24 C24           -5.1286     1.3232    -0.4809 C.3     
  25 C25           -7.0851     4.2558     1.3447 C.ar    
  26 C26           -8.4493     4.1538     1.5370 C.ar    
  27 C27           -9.0255     2.9206     1.7822 C.ar    
  28 C28           -8.2412     1.7819     1.8473 C.ar    
  29 C29            5.0052     6.1938    -0.7711 C.3     
  30 C30            5.6027     6.3443    -2.1722 C.3     
  31 C31            7.1171     6.3794    -2.1145 C.3     
  32 C32            7.7593     5.0699    -1.7014 C.3     
  33 C33            7.4526     4.7480    -0.2370 C.3     
  34 N34            7.6256     6.7493    -3.4421 N.3     
  35 C35            7.3447     8.1598    -3.7390 C.3     
  36 C36            8.0127     8.5471    -5.0603 C.3     
  37 C37            7.4735     7.6532    -6.1804 C.3     
  38 C38            7.7356     6.1874    -5.8238 C.3     
  39 C39            7.0757     5.8684    -4.4804 C.3     
  40 H40            0.2119     6.3670     1.4632 H       
  41 H41           -1.3735     5.8110     1.4761 H       
  42 H42            2.4147     1.1073    -0.1683 H       
  43 H43            4.8345     0.9777     0.4467 H       
  44 H44            2.8250     4.6168    -0.5687 H       
  45 H45            6.9990     2.1509     0.3398 H       
  46 H46           -2.3919     1.6098    -0.5535 H       
  47 H47           -5.1171     0.9025     2.3633 H       
  48 H48           -6.5543    -0.1364     2.2846 H       
  49 H49           -4.7362    -0.5376     0.5175 H       
  50 H50           -6.4020    -0.3578    -0.0738 H       
  51 H51           -6.0108     1.8552    -0.8371 H       
  52 H52           -4.5746     0.9364    -1.3361 H       
  53 H53           -6.6346     5.2183     1.1521 H       
  54 H54           -9.0670     5.0387     1.4962 H       
  55 H55          -10.0936     2.8456     1.9232 H       
  56 H56           -8.6976     0.8219     2.0382 H       
  57 H57            3.9963     6.6061    -0.7569 H       
  58 H58            5.6291     6.7196    -0.0483 H       
  59 H59            5.2873     5.5023    -2.7885 H       
  60 H60            5.2398     7.2699    -2.6189 H       
  61 H61            7.4183     7.1509    -1.4057 H       
  62 H62            7.3755     4.2681    -2.3322 H       
  63 H63            8.8388     5.1429    -1.8335 H       
  64 H64            7.4019     5.6723     0.3384 H       
  65 H65            8.2330     4.1034     0.1675 H       
  66 H66            6.2677     8.3064    -3.8198 H       
  67 H67            7.7370     8.7848    -2.9368 H       
  68 H68            7.7911     9.5897    -5.2882 H       
  69 H69            9.0912     8.4139    -4.9756 H       
  70 H70            6.4013     7.8150    -6.2914 H       
  71 H71            7.9782     7.8965    -7.1154 H       
  72 H72            7.3160     5.5441    -6.5972 H       
  73 H73            8.8098     6.0170    -5.7512 H       
  74 H74            7.2725     4.8293    -4.2167 H       
  75 H75            5.9999     6.0258    -4.5578 H       
@<TRIPOS>BOND
   1    1    2 1
   2    1    3 2
   3    2    7 1
   4    2    5 1
   5    3    4 1
   6    3    8 1
   7    4    5 2
   8    5    6 1
   9    6   40 1
  10    6   41 1
  11    7   15 ar
  12    7   19 ar
  13    8    9 1
  14    8   42 1
  15    9   10 ar
  16    9   11 ar
  17   10   14 ar
  18   10   43 1
  19   11   12 ar
  20   11   44 1
  21   12   13 ar
  22   12   29 1
  23   13   14 ar
  24   13   33 1
  25   14   45 1
  26   15   16 ar
  27   16   17 ar
  28   17   18 ar
  29   17   20 1
  30   18   19 ar
  31   18   24 1
  32   19   46 1
  33   20   21 ar
  34   20   25 ar
  35   21   22 1
  36   21   28 ar
  37   22   23 1
  38   22   47 1
  39   22   48 1
  40   23   24 1
  41   23   49 1
  42   23   50 1
  43   24   51 1
  44   24   52 1
  45   25   26 ar
  46   25   53 1
  47   26   27 ar
  48   26   54 1
  49   27   28 ar
  50   27   55 1
  51   28   56 1
  52   29   30 1
  53   29   57 1
  54   29   58 1
  55   30   31 1
  56   30   59 1
  57   30   60 1
  58   31   32 1
  59   31   34 1
  60   31   61 1
  61   32   33 1
  62   32   62 1
  63   32   63 1
  64   33   64 1
  65   33   65 1
  66   34   35 1
  67   34   39 1
  68   35   36 1
  69   35   66 1
  70   35   67 1
  71   36   37 1
  72   36   68 1
  73   36   69 1
  74   37   38 1
  75   37   70 1
  76   37   71 1
  77   38   39 1
  78   38   72 1
  79   38   73 1
  80   39   74 1
  81   39   75 1

#	End of record

