#	Name: ASD01811862
#	Creating user name:	WinNT
#	Creation time:	15. 06. 2019 19:27

#	Modifying user name:	WinNT
#	Modification time:	15. 06. 2019 19:27

#	Program:	/corina/corina34_cracker 3.40 0067  02.08.2006

@<TRIPOS>MOLECULE
ASD01811862
  51   55    0    0    0
SMALL
NO_CHARGES


@<TRIPOS>ATOM
   1 C1            -0.0168     1.3869     0.0097 C.ar    
   2 C2             0.0021    -0.0041     0.0020 C.ar    
   3 C3             1.1802    -0.6893    -0.0125 C.ar    
   4 C4             2.3947     0.0137    -0.0203 C.ar    
   5 C5             2.3718     1.4297    -0.0130 C.ar    
   6 C6             1.1454     2.1017     0.0024 C.ar    
   7 C7             3.6290    -0.6692    -0.0348 C.ar    
   8 C8             4.8029     0.0061    -0.0420 C.ar    
   9 C9             4.8360     1.4093    -0.0353 C.ar    
  10 C10            3.6410     2.1514    -0.0214 C.ar    
  11 C11            6.1034     2.1512    -0.0436 C.2     
  12 N12            6.0348     3.5027    -0.0368 N.am    
  13 C13            4.8324     4.1306    -0.0228 C.2     
  14 N14            3.6978     3.4938    -0.0162 N.2     
  15 O15            7.1748     1.5724    -0.0557 O.2     
  16 C16            7.2680     4.2934    -0.0440 C.3     
  17 C17            7.3209     5.1718     1.2098 C.3     
  18 C18            8.5729     6.0512     1.1548 C.3     
  19 O19            8.5488     6.8378    -0.0380 O.3     
  20 C20            8.5466     6.0701    -1.2433 C.3     
  21 C21            7.2936     5.1915    -1.2847 C.3     
  22 O22            7.3707     4.3422     2.3723 O.3     
  23 C23            3.6415    -2.1761    -0.0418 C.3     
  24 C24            3.5089    -2.6730    -1.4584 C.ar    
  25 C25            4.6375    -2.8939    -2.2332 C.ar    
  26 C26            4.4683    -3.3509    -3.5307 C.ar    
  27 C27            3.1877    -3.5700    -4.0064 C.ar    
  28 N28            2.1364    -3.3487    -3.2399 N.ar    
  29 C29            2.2613    -2.9193    -1.9992 C.ar    
  30 Cl30           2.9612    -4.1419    -5.6298 Cl      
  31 H31           -0.9631     1.9074     0.0170 H       
  32 H32           -0.9304    -0.5489     0.0080 H       
  33 H33            1.1791    -1.7693    -0.0175 H       
  34 H34            1.1184     3.1814     0.0077 H       
  35 H35            5.7313    -0.5456    -0.0527 H       
  36 H36            4.8162     5.2105    -0.0177 H       
  37 H37            8.1301     3.6266    -0.0587 H       
  38 H38            6.4335     5.8035     1.2497 H       
  39 H39            8.5934     6.7090     2.0237 H       
  40 H40            9.4611     5.4195     1.1558 H       
  41 H41            8.5483     6.7415    -2.1019 H       
  42 H42            9.4346     5.4386    -1.2736 H       
  43 H43            7.3121     4.5728    -2.1819 H       
  44 H44            6.4057     5.8236    -1.2952 H       
  45 H45            7.4058     4.8332     3.2046 H       
  46 H46            4.5799    -2.5337     0.3823 H       
  47 H47            2.8082    -2.5492     0.5536 H       
  48 H48            5.6252    -2.7137    -1.8351 H       
  49 H49            5.3250    -3.5334    -4.1625 H       
  50 H50            1.2490    -3.5097    -3.5970 H       
  51 H51            1.3778    -2.7497    -1.4017 H       
@<TRIPOS>BOND
   1    1    2 ar
   2    1    6 ar
   3    1   31 1
   4    2    3 ar
   5    2   32 1
   6    3    4 ar
   7    3   33 1
   8    4    7 ar
   9    4    5 ar
  10    5    6 ar
  11    5   10 ar
  12    6   34 1
  13    7    8 ar
  14    7   23 1
  15    8    9 ar
  16    8   35 1
  17    9   10 ar
  18    9   11 1
  19   10   14 1
  20   11   12 am
  21   11   15 2
  22   12   13 1
  23   12   16 1
  24   13   14 2
  25   13   36 1
  26   16   17 1
  27   16   21 1
  28   16   37 1
  29   17   18 1
  30   17   22 1
  31   17   38 1
  32   18   19 1
  33   18   39 1
  34   18   40 1
  35   19   20 1
  36   20   21 1
  37   20   41 1
  38   20   42 1
  39   21   43 1
  40   21   44 1
  41   22   45 1
  42   23   24 1
  43   23   46 1
  44   23   47 1
  45   24   25 ar
  46   24   29 ar
  47   25   26 ar
  48   25   48 1
  49   26   27 ar
  50   26   49 1
  51   27   28 ar
  52   27   30 1
  53   28   29 ar
  54   28   50 1
  55   29   51 1

#	End of record

