#	Name: ASD03092717
#	Creating user name:	WinNT
#	Creation time:	15. 06. 2019 20:33

#	Modifying user name:	WinNT
#	Modification time:	15. 06. 2019 20:33

#	Program:	/corina/corina34_cracker 3.40 0067  02.08.2006

@<TRIPOS>MOLECULE
ASD03092717
  57   59    0    0    0
SMALL
NO_CHARGES


@<TRIPOS>ATOM
   1 C1             0.0394     1.2160     0.4672 C.2     
   2 O2            -0.8294     1.2562    -0.3828 O.2     
   3 C3             2.4625     0.9102    -0.0765 C.ar    
   4 C4             1.3758     1.7667     0.1812 C.ar    
   5 C5             1.5858     3.1492     0.1608 C.ar    
   6 C6             2.8697     3.6178    -0.1155 C.ar    
   7 C7             3.8924     2.7014    -0.3601 C.ar    
   8 N8             3.6638     1.4044    -0.3340 N.ar    
   9 N9             2.2755    -0.4587    -0.0550 N.pl3   
  10 C10            3.4233    -1.3572    -0.2014 C.3     
  11 C11            4.0795    -1.5730     1.1638 C.3     
  12 C12            4.6625    -0.2499     1.6642 C.3     
  13 C13            2.9508    -2.7017    -0.7583 C.3     
  14 C14            2.4079    -2.5044    -2.1751 C.3     
  15 C15            3.1449     5.0755    -0.1494 C.ar    
  16 C16            4.4304     5.5371    -0.4263 C.ar    
  17 C17            4.6831     6.8926    -0.4576 C.ar    
  18 C18            3.6585     7.7969    -0.2133 C.ar    
  19 C19            2.3770     7.3401     0.0627 C.ar    
  20 C20            2.1170     5.9858     0.0898 C.ar    
  21 O21            3.9106     9.1318    -0.2440 O.3     
  22 C22            2.8105    10.0059     0.0165 C.3     
  23 C23            3.2841    11.4587    -0.0610 C.3     
  24 C24           -0.2470     0.6206     1.7886 C.ar    
  25 C25           -1.4761     0.0012     2.0273 C.ar    
  26 C26           -1.7371    -0.5530     3.2624 C.ar    
  27 C27           -0.7836    -0.4962     4.2658 C.ar    
  28 C28            0.4373     0.1167     4.0353 C.ar    
  29 C29            0.7125     0.6695     2.8027 C.ar    
  30 Cl30          -1.1203    -1.1954     5.8187 Cl      
  31 H31            0.7748     3.8358     0.3537 H       
  32 H32            4.8879     3.0611    -0.5748 H       
  33 H33            1.3842    -0.8248     0.0570 H       
  34 H34            4.1464    -0.9143    -0.8862 H       
  35 H35            3.3337    -1.9326     1.8726 H       
  36 H36            4.8775    -2.3096     1.0710 H       
  37 H37            5.4083     0.1098     0.9554 H       
  38 H38            3.8644     0.4868     1.7570 H       
  39 H39            5.1300    -0.4036     2.6368 H       
  40 H40            3.7882    -3.3989    -0.7839 H       
  41 H41            2.1635    -3.1028    -0.1201 H       
  42 H42            2.0712    -3.4622    -2.5718 H       
  43 H43            1.5704    -1.8072    -2.1494 H       
  44 H44            3.1952    -2.1033    -2.8133 H       
  45 H45            5.2281     4.8341    -0.6157 H       
  46 H46            5.6791     7.2509    -0.6721 H       
  47 H47            1.5819     8.0459     0.2527 H       
  48 H48            1.1190     5.6311     0.3005 H       
  49 H49            2.0296     9.8382    -0.7253 H       
  50 H50            2.4149     9.8054     1.0122 H       
  51 H51            4.0649    11.6264     0.6807 H       
  52 H52            3.6796    11.6593    -1.0567 H       
  53 H53            2.4450    12.1255     0.1376 H       
  54 H54           -2.2205    -0.0431     1.2461 H       
  55 H55           -2.6870    -1.0321     3.4482 H       
  56 H56            1.1766     0.1578     4.8216 H       
  57 H57            1.6662     1.1434     2.6229 H       
@<TRIPOS>BOND
   1    1    2 2
   2    1    4 1
   3    1   24 1
   4    3    4 ar
   5    3    8 ar
   6    3    9 1
   7    4    5 ar
   8    5    6 ar
   9    5   31 1
  10    6    7 ar
  11    6   15 1
  12    7    8 ar
  13    7   32 1
  14    9   10 1
  15    9   33 1
  16   10   11 1
  17   10   13 1
  18   10   34 1
  19   11   12 1
  20   11   35 1
  21   11   36 1
  22   12   37 1
  23   12   38 1
  24   12   39 1
  25   13   14 1
  26   13   40 1
  27   13   41 1
  28   14   42 1
  29   14   43 1
  30   14   44 1
  31   15   16 ar
  32   15   20 ar
  33   16   17 ar
  34   16   45 1
  35   17   18 ar
  36   17   46 1
  37   18   19 ar
  38   18   21 1
  39   19   20 ar
  40   19   47 1
  41   20   48 1
  42   21   22 1
  43   22   23 1
  44   22   49 1
  45   22   50 1
  46   23   51 1
  47   23   52 1
  48   23   53 1
  49   24   25 ar
  50   24   29 ar
  51   25   26 ar
  52   25   54 1
  53   26   27 ar
  54   26   55 1
  55   27   28 ar
  56   27   30 1
  57   28   29 ar
  58   28   56 1
  59   29   57 1

#	End of record

