#	Name: ASD01881748
#	Creating user name:	WinNT
#	Creation time:	15. 06. 2019 19:43

#	Modifying user name:	WinNT
#	Modification time:	15. 06. 2019 19:43

#	Program:	/corina/corina34_cracker 3.40 0067  02.08.2006

@<TRIPOS>MOLECULE
ASD01881748
  39   42    0    0    0
SMALL
NO_CHARGES


@<TRIPOS>ATOM
   1 N1             0.0461     1.1964    -0.7606 N.pl3   
   2 N2             0.0367    -0.0535    -0.4491 N.2     
   3 N3             1.2114    -0.4765    -0.1383 N.2     
   4 C4             2.0911     0.5402    -0.2395 C.ar    
   5 C5             1.3365     1.6554    -0.6505 C.ar    
   6 C6             3.4665     0.6766    -0.0334 C.ar    
   7 C7             4.0654     1.9043    -0.2361 C.ar    
   8 C8             3.3078     3.0001    -0.6427 C.ar    
   9 C9             1.9618     2.8796    -0.8485 C.ar    
  10 O10            5.4033     2.0444    -0.0370 O.3     
  11 C11            7.8400     4.8532     0.4907 C.3     
  12 C12            7.2302     3.4613     0.6757 C.3     
  13 C13            5.9405     3.3642    -0.1452 C.3     
  14 C14            6.2579     3.6695    -1.6122 C.3     
  15 C15            6.9053     5.0535    -1.7088 C.3     
  16 O16            8.0819     5.0851    -0.8984 O.3     
  17 C17           -1.1165     1.9894    -1.1677 C.3     
  18 C18           -1.7680     2.6114     0.0691 C.3     
  19 C19           -2.9342     3.5758    -0.1563 C.3     
  20 C20           -3.1956     2.1782     0.4089 C.3     
  21 Br21           4.4993    -0.8079     0.5192 Br      
  22 H22            3.7888     3.9547    -0.7972 H       
  23 H23            1.3847     3.7362    -1.1640 H       
  24 H24            7.1490     5.6061     0.8700 H       
  25 H25            8.7804     4.9138     1.0386 H       
  26 H26            7.9373     2.7054     0.3339 H       
  27 H27            7.0041     3.2997     1.7297 H       
  28 H28            5.2144     4.0853     0.2299 H       
  29 H29            6.9454     2.9179    -2.0003 H       
  30 H30            5.3366     3.6570    -2.1945 H       
  31 H31            7.1724     5.2583    -2.7456 H       
  32 H32            6.2021     5.8090    -1.3583 H       
  33 H33           -0.7972     2.7801    -1.8466 H       
  34 H34           -1.8366     1.3457    -1.6728 H       
  35 H35           -1.0944     2.8217     0.8998 H       
  36 H36           -3.0280     4.4204     0.5264 H       
  37 H37           -3.2373     3.7672    -1.1857 H       
  38 H38           -3.6706     1.4502    -0.2487 H       
  39 H39           -3.4613     2.1034     1.4633 H       
@<TRIPOS>BOND
   1    1    2 1
   2    1    5 1
   3    1   17 1
   4    2    3 2
   5    3    4 1
   6    4    5 ar
   7    4    6 ar
   8    5    9 ar
   9    6    7 ar
  10    6   21 1
  11    7    8 ar
  12    7   10 1
  13    8    9 ar
  14    8   22 1
  15    9   23 1
  16   10   13 1
  17   11   12 1
  18   11   16 1
  19   11   24 1
  20   11   25 1
  21   12   13 1
  22   12   26 1
  23   12   27 1
  24   13   14 1
  25   13   28 1
  26   14   15 1
  27   14   29 1
  28   14   30 1
  29   15   16 1
  30   15   31 1
  31   15   32 1
  32   17   18 1
  33   17   33 1
  34   17   34 1
  35   18   19 1
  36   18   20 1
  37   18   35 1
  38   19   20 1
  39   19   36 1
  40   19   37 1
  41   20   38 1
  42   20   39 1

#	End of record

