#	Name: ASD05313161
#	Creating user name:	WinNT
#	Creation time:	15. 06. 2019 20:58

#	Modifying user name:	WinNT
#	Modification time:	15. 06. 2019 20:58

#	Program:	/corina/corina34_cracker 3.40 0067  02.08.2006

@<TRIPOS>MOLECULE
ASD05313161
  41   44    0    0    0
SMALL
NO_CHARGES


@<TRIPOS>ATOM
   1 C1            -0.0625     0.8474     0.9878 C.2     
   2 C2             0.1147    -0.5949     0.5768 C.3     
   3 N3             0.9473     1.7531     1.0107 N.pl3   
   4 N4             1.4608    -0.7113    -0.0153 N.am    
   5 C5             2.5763    -0.0314     0.6605 C.3     
   6 C6             2.3342     1.4825     0.6361 C.3     
   7 N7            -0.8839     2.6842     1.6469 N.2     
   8 N8            -1.1449     1.4512     1.3771 N.2     
   9 C9             0.3954     2.9219     1.4390 C.2     
  10 C10            1.0970     4.2090     1.6360 C.ar    
  11 C11            0.3860     5.3228     2.0830 C.ar    
  12 C12            1.0552     6.5199     2.2632 C.ar    
  13 C13            2.4174     6.5659     1.9902 C.ar    
  14 C14            3.0605     5.4207     1.5490 C.ar    
  15 N15            2.3993     4.2928     1.3910 N.ar    
  16 F16            3.1074     7.7160     2.1530 F       
  17 C17            1.6627    -1.4209    -1.1432 C.2     
  18 O18            2.7581    -1.4255    -1.6705 O.2     
  19 C19            0.5530    -2.1930    -1.7388 C.ar    
  20 C20            0.3197    -2.1371    -3.1147 C.ar    
  21 C21           -0.7178    -2.8600    -3.6653 C.ar    
  22 C22           -1.5289    -3.6413    -2.8543 C.ar    
  23 C23           -1.3010    -3.6996    -1.4885 C.ar    
  24 C24           -0.2626    -2.9857    -0.9289 C.ar    
  25 C25            1.1995    -1.2882    -3.9958 C.3     
  26 F26           -2.5446    -4.3470    -3.3980 F       
  27 Cl27          -1.0098    -2.7921    -5.3752 Cl      
  28 H28            0.0349    -1.2429     1.4497 H       
  29 H29           -0.6408    -0.8672    -0.1602 H       
  30 H30            2.6389    -0.3734     1.6935 H       
  31 H31            3.5085    -0.2595     0.1436 H       
  32 H32            2.5218     1.8649    -0.3672 H       
  33 H33            3.0044     1.9701     1.3440 H       
  34 H34           -0.6725     5.2515     2.2853 H       
  35 H35            0.5311     7.3991     2.6079 H       
  36 H36            4.1187     5.4525     1.3354 H       
  37 H37           -1.9354    -4.3089    -0.8618 H       
  38 H38           -0.0834    -3.0357     0.1349 H       
  39 H39            2.0897    -1.8531    -4.2726 H       
  40 H40            0.6516    -1.0095    -4.8959 H       
  41 H41            1.4937    -0.3880    -3.4561 H       
@<TRIPOS>BOND
   1    1    2 1
   2    1    3 1
   3    1    8 2
   4    2    4 1
   5    2   28 1
   6    2   29 1
   7    3    6 1
   8    3    9 1
   9    4    5 1
  10    4   17 am
  11    5    6 1
  12    5   30 1
  13    5   31 1
  14    6   32 1
  15    6   33 1
  16    7    8 1
  17    7    9 2
  18    9   10 1
  19   10   11 ar
  20   10   15 ar
  21   11   12 ar
  22   11   34 1
  23   12   13 ar
  24   12   35 1
  25   13   14 ar
  26   13   16 1
  27   14   15 ar
  28   14   36 1
  29   17   18 2
  30   17   19 1
  31   19   20 ar
  32   19   24 ar
  33   20   21 ar
  34   20   25 1
  35   21   22 ar
  36   21   27 1
  37   22   23 ar
  38   22   26 1
  39   23   24 ar
  40   23   37 1
  41   24   38 1
  42   25   39 1
  43   25   40 1
  44   25   41 1

#	End of record

