#	Name: ASD01209273
#	Creating user name:	WinNT
#	Creation time:	15. 06. 2019 19:11

#	Modifying user name:	WinNT
#	Modification time:	15. 06. 2019 19:11

#	Program:	/corina/corina34_cracker 3.40 0067  02.08.2006

@<TRIPOS>MOLECULE
ASD01209273
  76   78    0    0    0
SMALL
NO_CHARGES


@<TRIPOS>ATOM
   1 C1             0.8050     1.6046     0.1547 C.ar    
   2 C2             1.3276     0.3508     0.4741 C.ar    
   3 C3             0.4734    -0.6959     0.7794 C.ar    
   4 C4             1.7128     2.7248    -0.1719 C.2     
   5 O5             1.2557     3.8162    -0.4498 O.2     
   6 N6             3.0472     2.5358    -0.1614 N.am    
   7 P7             6.8302     6.4685    -3.6233 P.3     
   8 O8             7.4537     5.1382    -3.8021 O.2     
   9 O9             7.8639     7.6124    -4.0871 O.3     
  10 C10            8.4678     7.6371    -5.3820 C.3     
  11 C11            9.3917     8.8517    -5.4908 C.3     
  12 O12            5.4935     6.5591    -4.5161 O.3     
  13 C13            5.4788     6.3089    -5.9230 C.3     
  14 C14            4.0551     6.4804    -6.4566 C.3     
  15 C15           -0.5768     1.7966     0.1388 C.ar    
  16 C16           -1.4241     0.7428     0.4398 C.ar    
  17 C17           -0.9003    -0.4990     0.7680 C.ar    
  18 O18           -2.7703     0.9290     0.4250 O.3     
  19 C19           -3.5858    -0.2086     0.7133 C.3     
  20 C20           -4.9806     0.0003     0.1203 C.3     
  21 O21           -5.6177     1.0983     0.7767 O.3     
  22 C22           -6.9334     1.3793     0.2950 C.3     
  23 C23           -3.6972    -0.3853     2.2290 C.3     
  24 O24            0.9812    -1.9175     1.0902 O.3     
  25 C25            1.5105    -2.0919     2.3295 C.ar    
  26 C26            1.5301    -1.0377     3.2315 C.ar    
  27 C27            2.0684    -1.2178     4.4908 C.ar    
  28 C28            2.5874    -2.4472     4.8529 C.ar    
  29 C29            2.5691    -3.4993     3.9559 C.ar    
  30 C30            2.0272    -3.3261     2.6971 C.ar    
  31 S31            3.2738    -2.6733     6.4599 S.o2    
  32 O32            4.2115    -3.7282     6.2952 O.2     
  33 O33            3.6949    -1.3726     6.8473 O.2     
  34 C34            1.8744    -3.2186     7.4772 C.3     
  35 C35            3.8987     3.5570    -0.5774 C.ar    
  36 C36            5.2740     3.4040    -0.4445 C.ar    
  37 C37            6.1084     4.4262    -0.8618 C.ar    
  38 C38            5.5359     5.5705    -1.3997 C.ar    
  39 C39            4.1611     5.6548    -1.5020 C.ar    
  40 N40            3.3909     4.6620    -1.1008 N.ar    
  41 C41            6.4053     6.7093    -1.8669 C.3     
  42 H42            2.3965     0.1967     0.4828 H       
  43 H43            3.4147     1.6887     0.1359 H       
  44 H44            9.0469     6.7256    -5.5303 H       
  45 H45            7.6910     7.7020    -6.1439 H       
  46 H46            9.8523     8.8706    -6.4785 H       
  47 H47            8.8126     9.7632    -5.3425 H       
  48 H48           10.1684     8.7868    -4.7288 H       
  49 H49            6.1421     7.0138    -6.4243 H       
  50 H50            5.8185     5.2911    -6.1146 H       
  51 H51            4.0439     6.2896    -7.5297 H       
  52 H52            3.3918     5.7756    -5.9553 H       
  53 H53            3.7154     7.4983    -6.2650 H       
  54 H54           -0.9854     2.7655    -0.1076 H       
  55 H55           -1.5637    -1.3184     1.0022 H       
  56 H56           -3.1347    -1.0992     0.2759 H       
  57 H57           -4.8942     0.2144    -0.9450 H       
  58 H58           -5.5748    -0.9023     0.2625 H       
  59 H59           -6.8875     1.6220    -0.7667 H       
  60 H60           -7.5681     0.5052     0.4407 H       
  61 H61           -7.3481     2.2250     0.8434 H       
  62 H62           -4.3192    -1.2530     2.4489 H       
  63 H63           -2.7035    -0.5341     2.6514 H       
  64 H64           -4.1483     0.5054     2.6664 H       
  65 H65            1.1252    -0.0772     2.9491 H       
  66 H66            2.0842    -0.3975     5.1932 H       
  67 H67            2.9755    -4.4585     4.2411 H       
  68 H68            2.0133    -4.1482     1.9969 H       
  69 H69            1.4710    -4.1469     7.0727 H       
  70 H70            2.2117    -3.3844     8.5003 H       
  71 H71            1.0994    -2.4521     7.4699 H       
  72 H72            5.6857     2.4998    -0.0209 H       
  73 H73            7.1807     4.3357    -0.7706 H       
  74 H74            3.7111     6.5432    -1.9199 H       
  75 H75            7.3186     6.7366    -1.2726 H       
  76 H76            5.8668     7.6496    -1.7490 H       
@<TRIPOS>BOND
   1    1    2 ar
   2    1    4 1
   3    1   15 ar
   4    2    3 ar
   5    2   42 1
   6    3   24 1
   7    3   17 ar
   8    4    5 2
   9    4    6 am
  10    6   35 1
  11    6   43 1
  12    7    8 2
  13    7    9 1
  14    7   12 1
  15    7   41 1
  16    9   10 1
  17   10   11 1
  18   10   44 1
  19   10   45 1
  20   11   46 1
  21   11   47 1
  22   11   48 1
  23   12   13 1
  24   13   14 1
  25   13   49 1
  26   13   50 1
  27   14   51 1
  28   14   52 1
  29   14   53 1
  30   15   16 ar
  31   15   54 1
  32   16   17 ar
  33   16   18 1
  34   17   55 1
  35   18   19 1
  36   19   20 1
  37   19   23 1
  38   19   56 1
  39   20   21 1
  40   20   57 1
  41   20   58 1
  42   21   22 1
  43   22   59 1
  44   22   60 1
  45   22   61 1
  46   23   62 1
  47   23   63 1
  48   23   64 1
  49   24   25 1
  50   25   26 ar
  51   25   30 ar
  52   26   27 ar
  53   26   65 1
  54   27   28 ar
  55   27   66 1
  56   28   29 ar
  57   28   31 1
  58   29   30 ar
  59   29   67 1
  60   30   68 1
  61   31   32 2
  62   31   33 2
  63   31   34 1
  64   34   69 1
  65   34   70 1
  66   34   71 1
  67   35   36 ar
  68   35   40 ar
  69   36   37 ar
  70   36   72 1
  71   37   38 ar
  72   37   73 1
  73   38   39 ar
  74   38   41 1
  75   39   40 ar
  76   39   74 1
  77   41   75 1
  78   41   76 1

#	End of record

