#	Name: ASD03092892
#	Creating user name:	WinNT
#	Creation time:	15. 06. 2019 20:33

#	Modifying user name:	WinNT
#	Modification time:	15. 06. 2019 20:33

#	Program:	/corina/corina34_cracker 3.40 0067  02.08.2006

@<TRIPOS>MOLECULE
ASD03092892
  54   57    0    0    0
SMALL
NO_CHARGES


@<TRIPOS>ATOM
   1 F1             0.0146    -0.0217     0.0123 F       
   2 C2            -0.0061     1.3291     0.0237 C.ar    
   3 C3            -1.2165     2.0023     0.0504 C.ar    
   4 C4            -1.2440     3.3851     0.0618 C.ar    
   5 C5            -0.0648     4.1019     0.0466 C.ar    
   6 C6             1.1566     3.4309     0.0201 C.ar    
   7 C7             1.1808     2.0381     0.0145 C.ar    
   8 C8             2.4268     4.1975     0.0032 C.2     
   9 C9             3.6794     3.6724    -0.0282 C.2     
  10 N10            4.5476     4.7281    -0.0337 N.pl3   
  11 C11            3.8093     5.8594    -0.0058 C.2     
  12 N12            2.5453     5.5409     0.0103 N.2     
  13 C13            6.0101     4.6478    -0.0642 C.3     
  14 C14            6.5333     5.3531    -1.3176 C.3     
  15 C15            8.0602     5.2372    -1.3640 C.3     
  16 N16            8.6123     5.7556    -0.1050 N.am    
  17 C17            8.1114     5.2098     1.1638 C.3     
  18 C18            6.5840     5.3260     1.1819 C.3     
  19 C19            9.5604     6.7134    -0.1138 C.2     
  20 O20           10.0346     7.0898    -1.1683 O.2     
  21 N21            9.9830     7.2541     1.0462 N.am    
  22 C22           11.0907     8.2128     1.0469 C.3     
  23 C23           10.5515     9.6154     0.7593 C.3     
  24 C24           11.7084    10.6167     0.7601 C.3     
  25 C25           12.3930    10.6040     2.1283 C.3     
  26 C26           12.9322     9.2014     2.4159 C.3     
  27 C27           11.7753     8.2001     2.4151 C.3     
  28 H28           -2.1419     1.4455     0.0620 H       
  29 H29           -2.1904     3.9051     0.0823 H       
  30 H30           -0.0884     5.1816     0.0548 H       
  31 H31            2.1246     1.5133    -0.0018 H       
  32 H32            3.9389     2.6242    -0.0449 H       
  33 H33            4.2027     6.8652    -0.0023 H       
  34 H34            6.3160     3.6018    -0.0819 H       
  35 H35            6.1058     4.8844    -2.2040 H       
  36 H36            6.2491     6.4050    -1.2887 H       
  37 H37            8.3438     4.1916    -1.4842 H       
  38 H38            8.4457     5.8209    -2.1999 H       
  39 H39            8.3992     4.1620     1.2498 H       
  40 H40            8.5308     5.7754     1.9958 H       
  41 H41            6.2993     6.3781     1.1873 H       
  42 H42            6.1926     4.8380     2.0745 H       
  43 H43            9.5536     7.0084     1.8806 H       
  44 H44           11.8114     7.9358     0.2775 H       
  45 H45           10.0638     9.6244    -0.2155 H       
  46 H46            9.8308     9.8924     1.5287 H       
  47 H47           12.4291    10.3397    -0.0093 H       
  48 H48           11.3243    11.6159     0.5552 H       
  49 H49           13.2172    11.3173     2.1289 H       
  50 H50           11.6723    10.8810     2.8977 H       
  51 H51           13.6529     8.9244     1.6465 H       
  52 H52           13.4199     9.1923     3.3907 H       
  53 H53           11.0546     8.4771     3.1845 H       
  54 H54           12.1594     7.2009     2.6200 H       
@<TRIPOS>BOND
   1    1    2 1
   2    2    7 ar
   3    2    3 ar
   4    3    4 ar
   5    3   28 1
   6    4    5 ar
   7    4   29 1
   8    5    6 ar
   9    5   30 1
  10    6    7 ar
  11    6    8 1
  12    7   31 1
  13    8   12 1
  14    8    9 2
  15    9   10 1
  16    9   32 1
  17   10   11 1
  18   10   13 1
  19   11   12 2
  20   11   33 1
  21   13   18 1
  22   13   14 1
  23   13   34 1
  24   14   15 1
  25   14   35 1
  26   14   36 1
  27   15   16 1
  28   15   37 1
  29   15   38 1
  30   16   17 1
  31   16   19 am
  32   17   18 1
  33   17   39 1
  34   17   40 1
  35   18   41 1
  36   18   42 1
  37   19   20 2
  38   19   21 am
  39   21   22 1
  40   21   43 1
  41   22   27 1
  42   22   23 1
  43   22   44 1
  44   23   24 1
  45   23   45 1
  46   23   46 1
  47   24   25 1
  48   24   47 1
  49   24   48 1
  50   25   26 1
  51   25   49 1
  52   25   50 1
  53   26   27 1
  54   26   51 1
  55   26   52 1
  56   27   53 1
  57   27   54 1

#	End of record

