#	Name: ASD01208521
#	Creating user name:	WinNT
#	Creation time:	15. 06. 2019 19:09

#	Modifying user name:	WinNT
#	Modification time:	15. 06. 2019 19:09

#	Program:	/corina/corina34_cracker 3.40 0067  02.08.2006

@<TRIPOS>MOLECULE
ASD01208521
  66   68    0    0    0
SMALL
NO_CHARGES


@<TRIPOS>ATOM
   1 N1            -0.0165     1.3787    -0.0176 N.am    
   2 C2             0.0022    -0.0042    -0.0362 C.2     
   3 C3             1.3207    -0.4107    -0.0551 C.2     
   4 C4             2.1156     0.7361    -0.0480 C.2     
   5 C5             1.2786     1.8285    -0.0248 C.2     
   6 C6            -1.1201     2.1523    -0.0010 C.2     
   7 O7            -1.6110     2.4871     1.0580 O.2     
   8 O8            -1.6778     2.5537    -1.1580 O.3     
   9 C9            -1.1691    -0.8812    -0.0355 C.2     
  10 O10           -1.0246    -2.0890    -0.0531 O.2     
  11 O11           -2.4093    -0.3503    -0.0153 O.3     
  12 C12            1.7031     3.2435    -0.0103 C.ar    
  13 C13            0.7475     4.2609     0.0130 C.ar    
  14 C14            1.1499     5.5857     0.0270 C.ar    
  15 C15            2.5010     5.9028     0.0174 C.ar    
  16 C16            3.4541     4.8950    -0.0062 C.ar    
  17 C17            3.0607     3.5669    -0.0141 C.ar    
  18 O18            4.7758     5.2112    -0.0159 O.3     
  19 C19            5.7028     4.1279     0.0799 C.3     
  20 C20            7.0221     4.6358     0.6649 C.3     
  21 C21            5.9529     3.5459    -1.3128 C.3     
  22 O22            7.6189     5.5649    -0.2421 O.3     
  23 C23            8.8629     6.1024     0.2113 C.3     
  24 O24            0.2205     6.5769     0.0497 O.3     
  25 C25           -2.8646     3.3850    -1.0642 C.3     
  26 C26           -2.5291     4.6688    -0.3024 C.3     
  27 C27           -3.3517     3.7391    -2.4707 C.3     
  28 C28           -3.9634     2.6231    -0.3207 C.3     
  29 C29           -3.5068    -1.2655    -0.0158 C.3     
  30 C30           -4.8024    -0.4961     0.0082 C.ar    
  31 C31           -5.4093    -0.1273    -1.1778 C.ar    
  32 C32           -6.5977     0.5784    -1.1558 C.ar    
  33 C33           -7.1795     0.9150     0.0521 C.ar    
  34 C34           -6.5731     0.5454     1.2381 C.ar    
  35 C35           -5.3869    -0.1641     1.2161 C.ar    
  36 H36            1.6735    -1.4313    -0.0720 H       
  37 H37            3.1952     0.7619    -0.0587 H       
  38 H38           -0.3041     4.0150     0.0197 H       
  39 H39            2.8113     6.9372     0.0280 H       
  40 H40            3.8034     2.7830    -0.0280 H       
  41 H41            5.2917     3.3543     0.7285 H       
  42 H42            6.8309     5.1298     1.6175 H       
  43 H43            7.6981     3.7950     0.8208 H       
  44 H44            6.6599     2.7196    -1.2397 H       
  45 H45            5.0129     3.1840    -1.7295 H       
  46 H46            6.3639     4.3195    -1.9614 H       
  47 H47            9.2507     6.7984    -0.5326 H       
  48 H48            8.7099     6.6268     1.1545 H       
  49 H49            9.5770     5.2921     0.3578 H       
  50 H50           -0.0397     6.8518     0.9396 H       
  51 H51           -1.7462     5.2115    -0.8322 H       
  52 H52           -3.4200     5.2928    -0.2320 H       
  53 H53           -2.1821     4.4165     0.6996 H       
  54 H54           -3.5907     2.8245    -3.0134 H       
  55 H55           -4.2426     4.3631    -2.4003 H       
  56 H56           -2.5688     4.2819    -3.0004 H       
  57 H57           -3.6164     2.3708     0.6813 H       
  58 H58           -4.8543     3.2472    -0.2503 H       
  59 H59           -4.2024     1.7085    -0.8634 H       
  60 H60           -3.4663    -1.8809    -0.9146 H       
  61 H61           -3.4474    -1.9046     0.8652 H       
  62 H62           -4.9548    -0.3903    -2.1216 H       
  63 H63           -7.0715     0.8672    -2.0824 H       
  64 H64           -8.1076     1.4670     0.0693 H       
  65 H65           -7.0274     0.8087     2.1819 H       
  66 H66           -4.9150    -0.4561     2.1426 H       
@<TRIPOS>BOND
   1    1    2 1
   2    1    5 1
   3    1    6 am
   4    2    3 2
   5    2    9 1
   6    3    4 1
   7    3   36 1
   8    4    5 2
   9    4   37 1
  10    5   12 1
  11    6    7 2
  12    6    8 1
  13    8   25 1
  14    9   10 2
  15    9   11 1
  16   11   29 1
  17   12   13 ar
  18   12   17 ar
  19   13   14 ar
  20   13   38 1
  21   14   15 ar
  22   14   24 1
  23   15   16 ar
  24   15   39 1
  25   16   17 ar
  26   16   18 1
  27   17   40 1
  28   18   19 1
  29   19   20 1
  30   19   21 1
  31   19   41 1
  32   20   22 1
  33   20   42 1
  34   20   43 1
  35   21   44 1
  36   21   45 1
  37   21   46 1
  38   22   23 1
  39   23   47 1
  40   23   48 1
  41   23   49 1
  42   24   50 1
  43   25   26 1
  44   25   28 1
  45   25   27 1
  46   26   51 1
  47   26   52 1
  48   26   53 1
  49   27   54 1
  50   27   55 1
  51   27   56 1
  52   28   57 1
  53   28   58 1
  54   28   59 1
  55   29   30 1
  56   29   60 1
  57   29   61 1
  58   30   31 ar
  59   30   35 ar
  60   31   32 ar
  61   31   62 1
  62   32   33 ar
  63   32   63 1
  64   33   34 ar
  65   33   64 1
  66   34   35 ar
  67   34   65 1
  68   35   66 1

#	End of record

