#	Name: ASD03731859
#	Creating user name:	WinNT
#	Creation time:	15. 06. 2019 20:46

#	Modifying user name:	WinNT
#	Modification time:	15. 06. 2019 20:46

#	Program:	/corina/corina34_cracker 3.40 0067  02.08.2006

@<TRIPOS>MOLECULE
ASD03731859
  39   40    0    0    0
SMALL
NO_CHARGES


@<TRIPOS>ATOM
   1 C1            -0.0180     1.4743     0.0101 C.2     
   2 C2             0.0021    -0.0041     0.0020 C.ar    
   3 C3             1.2180    -0.6875    -0.0133 C.ar    
   4 C4             1.2289    -2.0724    -0.0203 C.ar    
   5 C5             0.0327    -2.7766    -0.0122 C.ar    
   6 C6            -1.1734    -2.1004     0.0025 C.ar    
   7 C7            -1.1958    -0.7210     0.0154 C.ar    
   8 O8             1.0263     2.0964     0.0035 O.2     
   9 N9            -1.1942     2.1323     0.0193 N.am    
  10 S10           -1.2167     3.7881     0.0284 S.o2    
  11 O11           -2.5980     4.1196     0.0625 O.2     
  12 O12           -0.3511     4.1444     1.0976 O.2     
  13 C13            0.0486    -4.2835    -0.0199 C.3     
  14 C14            0.1915    -4.7916     1.3916 C.ar    
  15 C15           -0.9348    -5.0377     2.1546 C.ar    
  16 C16           -0.8041    -5.5040     3.4501 C.ar    
  17 C17            0.4554    -5.7241     3.9822 C.ar    
  18 C18            1.5810    -5.4774     3.2175 C.ar    
  19 C19            1.4484    -5.0167     1.9208 C.ar    
  20 Cl20          -2.2181    -5.8126     4.4089 Cl      
  21 O21            2.4114    -2.7422    -0.0357 O.3     
  22 Cl22           0.6211    -6.3089     5.6083 Cl      
  23 C23           -0.4880     4.2594    -1.5646 C.3     
  24 C24            3.6034    -1.9541    -0.0438 C.3     
  25 H25            2.1479    -0.1384    -0.0199 H       
  26 H26           -2.1008    -2.6538     0.0084 H       
  27 H27           -2.1394    -0.1960     0.0318 H       
  28 H28           -2.0276     1.6359     0.0206 H       
  29 H29           -0.8831    -4.6545    -0.4470 H       
  30 H30            0.8884    -4.6349    -0.6193 H       
  31 H31           -1.9167    -4.8654     1.7392 H       
  32 H32            2.5635    -5.6489     3.6318 H       
  33 H33            2.3275    -4.8287     1.3222 H       
  34 H34           -1.0900     3.8488    -2.3752 H       
  35 H35           -0.4629     5.3462    -1.6453 H       
  36 H36            0.5266     3.8666    -1.6305 H       
  37 H37            3.6141    -1.3207    -0.9307 H       
  38 H38            3.6321    -1.3296     0.8491 H       
  39 H39            4.4731    -2.6110    -0.0559 H       
@<TRIPOS>BOND
   1    1    2 1
   2    1    8 2
   3    1    9 am
   4    2    3 ar
   5    2    7 ar
   6    3    4 ar
   7    3   25 1
   8    4    5 ar
   9    4   21 1
  10    5    6 ar
  11    5   13 1
  12    6    7 ar
  13    6   26 1
  14    7   27 1
  15    9   10 am
  16    9   28 1
  17   10   11 2
  18   10   12 2
  19   10   23 1
  20   13   14 1
  21   13   29 1
  22   13   30 1
  23   14   15 ar
  24   14   19 ar
  25   15   16 ar
  26   15   31 1
  27   16   17 ar
  28   16   20 1
  29   17   18 ar
  30   17   22 1
  31   18   19 ar
  32   18   32 1
  33   19   33 1
  34   21   24 1
  35   23   34 1
  36   23   35 1
  37   23   36 1
  38   24   37 1
  39   24   38 1
  40   24   39 1

#	End of record

