#	Name: ASD03081113
#	Creating user name:	WinNT
#	Creation time:	15. 06. 2019 20:27

#	Modifying user name:	WinNT
#	Modification time:	15. 06. 2019 20:27

#	Program:	/corina/corina34_cracker 3.40 0067  02.08.2006

@<TRIPOS>MOLECULE
ASD03081113
  24   26    0    0    0
SMALL
NO_CHARGES


@<TRIPOS>ATOM
   1 O1            -0.0144     1.2085     0.0087 O.3     
   2 N2             0.0021    -0.0041     0.0020 N.2     
   3 C3             1.2345    -0.4420    -0.0121 C.2     
   4 N4             2.0453     0.6365    -0.0141 N.2     
   5 C5             1.2410     1.6827    -0.0008 C.2     
   6 C6             2.9955     3.4584    -0.0091 C.ar    
   7 C7             1.6456     3.1046     0.0023 C.ar    
   8 C8             0.6811     4.1189     0.0162 C.ar    
   9 C9             1.1122     5.4340     0.0180 C.ar    
  10 C10            2.4690     5.7017     0.0061 C.ar    
  11 N11            3.3559     4.7248    -0.0069 N.ar    
  12 C12            3.0152    -2.2108    -0.0377 C.ar    
  13 C13            1.6625    -1.8640    -0.0234 C.ar    
  14 C14            0.7240    -2.9019    -0.0196 C.ar    
  15 C15            1.1983    -4.2026    -0.0302 C.ar    
  16 N16            2.4981    -4.4298    -0.0435 N.ar    
  17 N17            3.3630    -3.4824    -0.0470 N.ar    
  18 H18            3.7512     2.6867    -0.0154 H       
  19 H19           -0.3724     3.8813     0.0249 H       
  20 H20            0.3965     6.2428     0.0282 H       
  21 H21            2.8082     6.7270     0.0072 H       
  22 H22            3.7727    -1.4410    -0.0456 H       
  23 H23           -0.3360    -2.6951    -0.0083 H       
  24 H24            0.5050    -5.0306    -0.0274 H       
@<TRIPOS>BOND
   1    1    2 1
   2    1    5 1
   3    2    3 2
   4    3    4 1
   5    3   13 1
   6    4    5 2
   7    5    7 1
   8    6    7 ar
   9    6   11 ar
  10    6   18 1
  11    7    8 ar
  12    8    9 ar
  13    8   19 1
  14    9   10 ar
  15    9   20 1
  16   10   11 ar
  17   10   21 1
  18   12   13 ar
  19   12   17 ar
  20   12   22 1
  21   13   14 ar
  22   14   15 ar
  23   14   23 1
  24   15   16 ar
  25   15   24 1
  26   16   17 ar

#	End of record

