#	Name: ASD01884783
#	Creating user name:	WinNT
#	Creation time:	15. 06. 2019 19:48

#	Modifying user name:	WinNT
#	Modification time:	15. 06. 2019 19:48

#	Program:	/corina/corina34_cracker 3.40 0067  02.08.2006

@<TRIPOS>MOLECULE
ASD01884783
  46   49    0    0    0
SMALL
NO_CHARGES


@<TRIPOS>ATOM
   1 C1            -0.4382     1.2687     0.2475 C.3     
   2 C2            -0.1565    -0.2338     0.1839 C.3     
   3 H3            -1.0901    -0.7844     0.2995 H       
   4 C4             0.4757    -0.5781    -1.1645 C.3     
   5 N5             1.0586    -1.9152    -1.1851 N.am    
   6 C6             1.7485    -2.4083    -0.1286 C.2     
   7 O7             2.4039    -3.4306    -0.2106 O.2     
   8 C8             1.6628    -1.6430     1.1186 C.2     
   9 C9             2.3585    -1.7471     2.3069 C.2     
  10 C10            1.8677    -0.7330     3.1594 C.2     
  11 N11            0.9337    -0.0652     2.5268 N.2     
  12 N12            0.7663    -0.6044     1.2589 N.pl3   
  13 C13            3.3812    -2.7006     2.6159 C.1     
  14 C14            4.2197    -3.4823     2.8693 C.1     
  15 C15            5.2424    -4.4358     3.1784 C.ar    
  16 C16            5.6373    -5.3904     2.2279 C.ar    
  17 C17            6.6271    -6.2876     2.5722 C.ar    
  18 C18            7.1979    -6.2183     3.8409 C.ar    
  19 N19            8.1943    -7.1185     4.1929 N.pl3   
  20 N20            6.8038    -5.3050     4.7165 N.ar    
  21 C21            5.8661    -4.4264     4.4282 C.ar    
  22 C22            0.9008    -2.7089    -2.3252 C.ar    
  23 C23            0.1213    -3.8573    -2.2714 C.ar    
  24 C24           -0.0325    -4.6392    -3.3994 C.ar    
  25 C25            0.5887    -4.2799    -4.5815 C.ar    
  26 C26            1.3655    -3.1373    -4.6385 C.ar    
  27 C27            1.5187    -2.3479    -3.5157 C.ar    
  28 C28            0.4190    -5.1358    -5.8102 C.3     
  29 F29           -0.6947    -4.6968    -6.5342 F       
  30 F30            1.5632    -5.0367    -6.6091 F       
  31 F31            0.2312    -6.4684    -5.4280 F       
  32 H32            0.4957     1.8187     0.1318 H       
  33 H33           -1.1237     1.5441    -0.5540 H       
  34 H34           -0.8873     1.5138     1.2099 H       
  35 H35           -0.2892    -0.5153    -1.9386 H       
  36 H36            1.2566     0.1501    -1.3838 H       
  37 H37            2.2061    -0.5400     4.1667 H       
  38 H38            5.1774    -5.4218     1.2512 H       
  39 H39            6.9555    -7.0358     1.8659 H       
  40 H40            8.4882    -7.7896     3.5572 H       
  41 H41            8.5965    -7.0764     5.0745 H       
  42 H42            5.5738    -3.6942     5.1664 H       
  43 H43           -0.3638    -4.1386    -1.3484 H       
  44 H44           -0.6382    -5.5324    -3.3581 H       
  45 H45            1.8495    -2.8597    -5.5632 H       
  46 H46            2.1219    -1.4532    -3.5620 H       
@<TRIPOS>BOND
   1    1    2 1
   2    1   32 1
   3    1   33 1
   4    1   34 1
   5    2    3 1
   6    2   12 1
   7    2    4 1
   8    4    5 1
   9    4   35 1
  10    4   36 1
  11    5    6 am
  12    5   22 1
  13    6    7 2
  14    6    8 1
  15    8   12 1
  16    8    9 2
  17    9   10 1
  18    9   13 1
  19   10   11 2
  20   10   37 1
  21   11   12 1
  22   13   14 3
  23   14   15 1
  24   15   21 ar
  25   15   16 ar
  26   16   17 ar
  27   16   38 1
  28   17   18 ar
  29   17   39 1
  30   18   19 1
  31   18   20 ar
  32   19   40 1
  33   19   41 1
  34   20   21 ar
  35   21   42 1
  36   22   27 ar
  37   22   23 ar
  38   23   24 ar
  39   23   43 1
  40   24   25 ar
  41   24   44 1
  42   25   26 ar
  43   25   28 1
  44   26   27 ar
  45   26   45 1
  46   27   46 1
  47   28   29 1
  48   28   30 1
  49   28   31 1

#	End of record

