#	Name: ASD02030329
#	Creating user name:	WinNT
#	Creation time:	15. 06. 2019 20:15

#	Modifying user name:	WinNT
#	Modification time:	15. 06. 2019 20:15

#	Program:	/corina/corina34_cracker 3.40 0067  02.08.2006

@<TRIPOS>MOLECULE
ASD02030329
  54   56    0    0    0
SMALL
NO_CHARGES


@<TRIPOS>ATOM
   1 C1             0.0407     1.3504    -0.4475 C.2     
   2 O2             0.2134     0.1783    -0.7174 O.2     
   3 C3             1.1307     2.3296    -0.6671 C.ar    
   4 C4             2.4454     1.8855    -0.7719 C.ar    
   5 C5             3.4579     2.8114    -0.9775 C.ar    
   6 C6             3.1210     4.1502    -1.0713 C.ar    
   7 C7             1.7852     4.5265    -0.9574 C.ar    
   8 N8             0.8433     3.6224    -0.7675 N.ar    
   9 O9             1.4477     5.8373    -1.0484 O.3     
  10 C10            0.0614     6.1606    -0.9236 C.3     
  11 N11           -1.1443     1.7607     0.0464 N.am    
  12 C12           -2.2825     0.8344     0.1450 C.3     
  13 C13           -3.5021     1.4903    -0.5113 C.3     
  14 N14           -3.7242     2.8131     0.0875 N.3     
  15 C15           -2.5905     3.7114    -0.1692 C.3     
  16 C16           -1.3318     3.1450     0.5067 C.3     
  17 C17           -3.2525     1.6449    -2.0128 C.3     
  18 C18           -4.7360     0.6141    -0.2859 C.3     
  19 O19           -5.0497     0.5827     1.1079 O.3     
  20 C20           -6.1927    -0.2128     1.4286 C.3     
  21 C21           -4.9819     3.4029    -0.3903 C.3     
  22 C22           -5.2836     4.6505     0.3993 C.ar    
  23 C23           -4.8129     5.8750    -0.0365 C.ar    
  24 C24           -5.0896     7.0194     0.6878 C.ar    
  25 C25           -5.8374     6.9394     1.8477 C.ar    
  26 C26           -6.3088     5.7150     2.2830 C.ar    
  27 C27           -6.0358     4.5712     1.5563 C.ar    
  28 H28            2.6748     0.8330    -0.6939 H       
  29 H29            4.4868     2.4942    -1.0622 H       
  30 H30            3.8861     4.8956    -1.2308 H       
  31 H31           -0.0700     7.2388    -1.0149 H       
  32 H32           -0.5011     5.6581    -1.7105 H       
  33 H33           -0.3022     5.8314     0.0498 H       
  34 H34           -2.0440    -0.0950    -0.3721 H       
  35 H35           -2.4973     0.6286     1.1936 H       
  36 H36           -2.4254     3.7907    -1.2437 H       
  37 H37           -2.8085     4.6981     0.2394 H       
  38 H38           -1.4570     3.1570     1.5894 H       
  39 H39           -0.4644     3.7439     0.2289 H       
  40 H40           -3.0854     0.6634    -2.4564 H       
  41 H41           -4.1202     2.1114    -2.4793 H       
  42 H42           -2.3740     2.2701    -2.1726 H       
  43 H43           -5.5800     1.0260    -0.8391 H       
  44 H44           -4.5317    -0.3979    -0.6352 H       
  45 H45           -6.3643    -0.1851     2.5047 H       
  46 H46           -7.0669     0.1820     0.9110 H       
  47 H47           -6.0186    -1.2420     1.1148 H       
  48 H48           -4.8866     3.6554    -1.4464 H       
  49 H49           -5.7922     2.6856    -0.2600 H       
  50 H50           -4.2287     5.9376    -0.9427 H       
  51 H51           -4.7213     7.9760     0.3477 H       
  52 H52           -6.0530     7.8334     2.4139 H       
  53 H53           -6.8928     5.6524     3.1894 H       
  54 H54           -6.4072     3.6151     1.8945 H       
@<TRIPOS>BOND
   1    1    2 2
   2    1    3 1
   3    1   11 am
   4    3    4 ar
   5    3    8 ar
   6    4    5 ar
   7    4   28 1
   8    5    6 ar
   9    5   29 1
  10    6    7 ar
  11    6   30 1
  12    7    8 ar
  13    7    9 1
  14    9   10 1
  15   10   31 1
  16   10   32 1
  17   10   33 1
  18   11   12 1
  19   11   16 1
  20   12   13 1
  21   12   34 1
  22   12   35 1
  23   13   14 1
  24   13   17 1
  25   13   18 1
  26   14   15 1
  27   14   21 1
  28   15   16 1
  29   15   36 1
  30   15   37 1
  31   16   38 1
  32   16   39 1
  33   17   40 1
  34   17   41 1
  35   17   42 1
  36   18   19 1
  37   18   43 1
  38   18   44 1
  39   19   20 1
  40   20   45 1
  41   20   46 1
  42   20   47 1
  43   21   22 1
  44   21   48 1
  45   21   49 1
  46   22   23 ar
  47   22   27 ar
  48   23   24 ar
  49   23   50 1
  50   24   25 ar
  51   24   51 1
  52   25   26 ar
  53   25   52 1
  54   26   27 ar
  55   26   53 1
  56   27   54 1

#	End of record

