#	Name: ASD01148705
#	Creating user name:	WinNT
#	Creation time:	15. 06. 2019 19:03

#	Modifying user name:	WinNT
#	Modification time:	15. 06. 2019 19:03

#	Program:	/corina/corina34_cracker 3.40 0067  02.08.2006

@<TRIPOS>MOLECULE
ASD01148705
  80   85    0    0    0
SMALL
NO_CHARGES


@<TRIPOS>ATOM
   1 C1             0.1897     1.9650     0.3114 C.3     
   2 C2             0.1158     0.4381     0.2460 C.3     
   3 C3             0.8374    -0.1598     1.4552 C.3     
   4 C4             1.6554     2.4043     0.2984 C.3     
   5 C5             2.3769     1.8072     1.5079 C.3     
   6 C6             3.8416     2.2487     1.4988 C.3     
   7 C7             4.5618     1.6532     2.7104 C.3     
   8 C8             4.4919     0.1270     2.6452 C.3     
   9 C9             5.1530    -0.4840     3.8666 C.3     
  10 C10            6.6559    -0.2245     4.0152 C.3     
  11 C11            7.1211    -1.3918     4.9281 C.3     
  12 C12            6.0858    -2.5294     4.7443 C.3     
  13 C13            5.1171    -2.0250     3.6797 C.3     
  14 C14            5.6408    -2.3898     2.2891 C.3     
  15 C15            3.6727    -2.4655     3.8151 C.3     
  16 C16            2.8893    -1.8318     2.6532 C.3     
  17 C17            3.0196    -0.3125     2.6593 C.3     
  18 C18            2.3031     0.2800     1.4453 C.3     
  19 C19            2.9754    -0.2118     0.1619 C.3     
  20 O20           -0.4339     2.4213     1.5134 O.3     
  21 S21            6.9093    -4.0433     4.1782 S.3     
  22 C22            5.5754    -5.2720     4.2160 C.3     
  23 C23            6.0874    -6.5859     3.6845 C.ar    
  24 C24            6.6487    -7.5089     4.5471 C.ar    
  25 C25            7.1185    -8.7141     4.0595 C.ar    
  26 C26            7.0265    -8.9965     2.7094 C.ar    
  27 C27            6.4644    -8.0739     1.8470 C.ar    
  28 C28            5.9907    -6.8705     2.3352 C.ar    
  29 S29            5.2056    -2.8356     6.3006 S.3     
  30 C30            6.5183    -3.4319     7.4014 C.3     
  31 C31            5.9181    -3.8475     8.7198 C.ar    
  32 C32            5.4903    -5.1489     8.9048 C.ar    
  33 C33            4.9397    -5.5301    10.1141 C.ar    
  34 C34            4.8174    -4.6101    11.1386 C.ar    
  35 C35            5.2461    -3.3089    10.9538 C.ar    
  36 C36            5.8007    -2.9288     9.7460 C.ar    
  37 H37           -0.3251     2.3910    -0.5498 H       
  38 H38           -0.9280     0.1242     0.2541 H       
  39 H39            0.5927     0.0901    -0.6703 H       
  40 H40            0.3601     0.1878     2.3714 H       
  41 H41            0.7844    -1.2475     1.4084 H       
  42 H42            2.1314     2.0547    -0.6178 H       
  43 H43            1.7092     3.4920     0.3437 H       
  44 H44            1.8988     2.1549     2.4236 H       
  45 H45            4.3205     1.9000     0.5839 H       
  46 H46            3.8933     3.3366     1.5439 H       
  47 H47            5.6048     1.9698     2.7049 H       
  48 H48            4.0816     2.0002     3.6253 H       
  49 H49            4.9892    -0.2262     1.7418 H       
  50 H50            4.6250    -0.1852     4.7722 H       
  51 H51            7.1530    -0.2708     3.0463 H       
  52 H52            6.8356     0.7368     4.4966 H       
  53 H53            8.1104    -1.7335     4.6236 H       
  54 H54            7.1405    -1.0681     5.9688 H       
  55 H55            6.6668    -2.0374     2.1834 H       
  56 H56            5.6135    -3.4721     2.1630 H       
  57 H57            5.0152    -1.9197     1.5304 H       
  58 H58            3.6094    -3.5520     3.7559 H       
  59 H59            3.2678    -2.1210     4.7667 H       
  60 H60            3.2745    -2.2191     1.7100 H       
  61 H61            1.8367    -2.0999     2.7444 H       
  62 H62            2.5443     0.0781     3.5591 H       
  63 H63            2.4634     0.2121    -0.7019 H       
  64 H64            4.0193     0.1017     0.1555 H       
  65 H65            2.9225    -1.2996     0.1179 H       
  66 H66           -1.3665     2.1773     1.5898 H       
  67 H67            5.2321    -5.4042     5.2421 H       
  68 H68            4.7467    -4.9279     3.5971 H       
  69 H69            6.7206    -7.2882     5.6018 H       
  70 H70            7.5577    -9.4348     4.7333 H       
  71 H71            7.3942    -9.9378     2.3284 H       
  72 H72            6.3929    -8.2945     0.7922 H       
  73 H73            5.5482    -6.1513     1.6620 H       
  74 H74            7.0163    -4.2864     6.9434 H       
  75 H75            7.2432    -2.6349     7.5673 H       
  76 H76            5.5858    -5.8677     8.1044 H       
  77 H77            4.6048    -6.5467    10.2584 H       
  78 H78            4.3866    -4.9077    12.0831 H       
  79 H79            5.1503    -2.5900    11.7541 H       
  80 H80            6.1390    -1.9132     9.6029 H       
@<TRIPOS>BOND
   1    1    2 1
   2    1    4 1
   3    1   20 1
   4    1   37 1
   5    2    3 1
   6    2   38 1
   7    2   39 1
   8    3   18 1
   9    3   40 1
  10    3   41 1
  11    4    5 1
  12    4   42 1
  13    4   43 1
  14    5    6 1
  15    5   18 1
  16    5   44 1
  17    6    7 1
  18    6   45 1
  19    6   46 1
  20    7    8 1
  21    7   47 1
  22    7   48 1
  23    8    9 1
  24    8   17 1
  25    8   49 1
  26    9   10 1
  27    9   13 1
  28    9   50 1
  29   10   11 1
  30   10   51 1
  31   10   52 1
  32   11   12 1
  33   11   53 1
  34   11   54 1
  35   12   13 1
  36   12   21 1
  37   12   29 1
  38   13   14 1
  39   13   15 1
  40   14   55 1
  41   14   56 1
  42   14   57 1
  43   15   16 1
  44   15   58 1
  45   15   59 1
  46   16   17 1
  47   16   60 1
  48   16   61 1
  49   17   18 1
  50   17   62 1
  51   18   19 1
  52   19   63 1
  53   19   64 1
  54   19   65 1
  55   20   66 1
  56   21   22 1
  57   22   23 1
  58   22   67 1
  59   22   68 1
  60   23   24 ar
  61   23   28 ar
  62   24   25 ar
  63   24   69 1
  64   25   26 ar
  65   25   70 1
  66   26   27 ar
  67   26   71 1
  68   27   28 ar
  69   27   72 1
  70   28   73 1
  71   29   30 1
  72   30   31 1
  73   30   74 1
  74   30   75 1
  75   31   32 ar
  76   31   36 ar
  77   32   33 ar
  78   32   76 1
  79   33   34 ar
  80   33   77 1
  81   34   35 ar
  82   34   78 1
  83   35   36 ar
  84   35   79 1
  85   36   80 1

#	End of record

