#	Name: ASD01901012
#	Creating user name:	WinNT
#	Creation time:	15. 06. 2019 19:53

#	Modifying user name:	WinNT
#	Modification time:	15. 06. 2019 19:53

#	Program:	/corina/corina34_cracker 3.40 0067  02.08.2006

@<TRIPOS>MOLECULE
ASD01901012
  27   28    0    0    0
SMALL
NO_CHARGES


@<TRIPOS>ATOM
   1 C1            -0.0159     1.3212     0.0093 C.ar    
   2 N2             0.0021    -0.0041     0.0020 N.ar    
   3 C3             1.1503    -0.6721    -0.0126 C.ar    
   4 C4             2.3472     0.0364    -0.0202 C.ar    
   5 C5             2.2920     1.4331    -0.0122 C.ar    
   6 N6             1.0986     2.0335     0.0025 N.ar    
   7 O7             1.1554    -2.0274    -0.0195 O.3     
   8 C8             3.5302     2.2305    -0.0193 C.2     
   9 C9             3.4652     3.5721    -0.0115 C.2     
  10 C10            4.7042     4.3699    -0.0186 C.ar    
  11 C11            4.6404     5.7659    -0.0105 C.ar    
  12 C12            5.8042     6.5060    -0.0173 C.ar    
  13 C13            7.0328     5.8695    -0.0325 C.ar    
  14 C14            7.1038     4.4875    -0.0406 C.ar    
  15 C15            5.9486     3.7342    -0.0277 C.ar    
  16 N16           -1.2343     1.9777     0.0186 N.pl3   
  17 H17            3.2958    -0.4798    -0.0318 H       
  18 H18            1.1482    -2.4163    -0.9048 H       
  19 H19            4.4906     1.7365    -0.0308 H       
  20 H20            2.5049     4.0661    -0.0000 H       
  21 H21            3.6822     6.2640     0.0007 H       
  22 H22            5.7565     7.5849    -0.0110 H       
  23 H23            7.9408     6.4542    -0.0385 H       
  24 H24            8.0663     3.9976    -0.0529 H       
  25 H25            6.0056     2.6557    -0.0295 H       
  26 H26           -2.0598     1.4683     0.0197 H       
  27 H27           -1.2627     2.9473     0.0240 H       
@<TRIPOS>BOND
   1    1    2 ar
   2    1    6 ar
   3    1   16 1
   4    2    3 ar
   5    3    4 ar
   6    3    7 1
   7    4    5 ar
   8    4   17 1
   9    5    6 ar
  10    5    8 1
  11    7   18 1
  12    8    9 2
  13    8   19 1
  14    9   10 1
  15    9   20 1
  16   10   11 ar
  17   10   15 ar
  18   11   12 ar
  19   11   21 1
  20   12   13 ar
  21   12   22 1
  22   13   14 ar
  23   13   23 1
  24   14   15 ar
  25   14   24 1
  26   15   25 1
  27   16   26 1
  28   16   27 1

#	End of record

