#	Name: ASD02030008
#	Creating user name:	WinNT
#	Creation time:	15. 06. 2019 20:14

#	Modifying user name:	WinNT
#	Modification time:	15. 06. 2019 20:14

#	Program:	/corina/corina34_cracker 3.40 0067  02.08.2006

@<TRIPOS>MOLECULE
ASD02030008
  62   64    0    0    0
SMALL
NO_CHARGES


@<TRIPOS>ATOM
   1 C1             0.6068    -0.1843     1.7930 C.ar    
   2 C2             0.3222    -1.5240     1.5911 C.ar    
   3 C3            -0.9912    -1.9400     1.4647 C.ar    
   4 C4            -2.0182    -1.0183     1.5401 C.ar    
   5 C5            -1.7340     0.3198     1.7414 C.ar    
   6 C6            -0.4229     0.7362     1.8740 C.ar    
   7 Cl7            2.2543     0.3393     1.9517 Cl      
   8 C8            -3.4488    -1.4718     1.4024 C.3     
   9 C9            -4.0070    -1.8247     2.7826 C.3     
  10 N10           -5.4014    -2.2668     2.6483 N.3     
  11 C11           -5.8967    -2.8366     3.9085 C.3     
  12 C12           -7.1328    -3.6939     3.6296 C.3     
  13 C13           -7.5418    -4.4299     4.9070 C.3     
  14 O14           -8.6233    -5.3186     4.6193 O.3     
  15 C15           -9.1099    -6.0544     5.6544 C.ar    
  16 C16          -10.1593    -6.9367     5.4445 C.ar    
  17 C17          -10.6538    -7.6846     6.4949 C.ar    
  18 C18          -10.1001    -7.5532     7.7615 C.ar    
  19 C19           -9.0495    -6.6696     7.9708 C.ar    
  20 C20           -8.5528    -5.9263     6.9181 C.ar    
  21 N21          -10.6008    -8.3103     8.8266 N.am    
  22 S22          -11.5309    -7.5879     9.9908 S.o2    
  23 C23          -12.9968    -6.9999     9.0986 C.3     
  24 O24          -11.8755    -8.6481    10.8719 O.2     
  25 O25          -10.7452    -6.4910    10.4364 O.2     
  26 O26           -8.2066    -2.8554     3.1984 O.3     
  27 Cl27           1.6127    -2.6813     1.4958 Cl      
  28 C28           -6.2615    -1.1657     2.1945 C.3     
  29 C29           -6.0964     0.0139     3.1177 C.ar    
  30 C30           -5.2004     1.0182     2.8025 C.ar    
  31 C31           -5.0490     2.1003     3.6494 C.ar    
  32 C32           -5.7939     2.1781     4.8113 C.ar    
  33 C33           -6.6905     1.1742     5.1261 C.ar    
  34 C34           -6.8451     0.0944     4.2770 C.ar    
  35 H35           -1.2139    -2.9849     1.3068 H       
  36 H36           -2.5373     1.0393     1.7998 H       
  37 H37           -0.2015     1.7815     2.0312 H       
  38 H38           -4.0434    -0.6704     0.9640 H       
  39 H39           -3.4911    -2.3499     0.7580 H       
  40 H40           -3.4123    -2.6261     3.2210 H       
  41 H41           -3.9647    -0.9466     3.4269 H       
  42 H42           -5.1196    -3.4549     4.3579 H       
  43 H43           -6.1606    -2.0303     4.5929 H       
  44 H44           -6.9031    -4.4199     2.8497 H       
  45 H45           -6.6935    -5.0005     5.2851 H       
  46 H46           -7.8567    -3.7059     5.6586 H       
  47 H47          -10.5902    -7.0386     4.4594 H       
  48 H48          -11.4712    -8.3714     6.3314 H       
  49 H49           -8.6182    -6.5667     8.9556 H       
  50 H50           -7.7354    -5.2393     7.0806 H       
  51 H51          -10.4031    -9.2582     8.8829 H       
  52 H52          -13.5538    -7.8536     8.7124 H       
  53 H53          -13.6308    -6.4294     9.7774 H       
  54 H54          -12.6868    -6.3634     8.2698 H       
  55 H55           -8.4431    -2.1629     3.8305 H       
  56 H56           -5.9785    -0.8772     1.1822 H       
  57 H57           -7.3020    -1.4904     2.2024 H       
  58 H58           -4.6185     0.9574     1.8947 H       
  59 H59           -4.3485     2.8846     3.4034 H       
  60 H60           -5.6750     3.0231     5.4733 H       
  61 H61           -7.2722     1.2349     6.0340 H       
  62 H62           -7.5456    -0.6900     4.5229 H       
@<TRIPOS>BOND
   1    1    2 ar
   2    1    7 1
   3    1    6 ar
   4    2    3 ar
   5    2   27 1
   6    3    4 ar
   7    3   35 1
   8    4    5 ar
   9    4    8 1
  10    5    6 ar
  11    5   36 1
  12    6   37 1
  13    8    9 1
  14    8   38 1
  15    8   39 1
  16    9   10 1
  17    9   40 1
  18    9   41 1
  19   10   11 1
  20   10   28 1
  21   11   12 1
  22   11   42 1
  23   11   43 1
  24   12   13 1
  25   12   26 1
  26   12   44 1
  27   13   14 1
  28   13   45 1
  29   13   46 1
  30   14   15 1
  31   15   16 ar
  32   15   20 ar
  33   16   17 ar
  34   16   47 1
  35   17   18 ar
  36   17   48 1
  37   18   19 ar
  38   18   21 1
  39   19   20 ar
  40   19   49 1
  41   20   50 1
  42   21   22 am
  43   21   51 1
  44   22   23 1
  45   22   24 2
  46   22   25 2
  47   23   52 1
  48   23   53 1
  49   23   54 1
  50   26   55 1
  51   28   29 1
  52   28   56 1
  53   28   57 1
  54   29   30 ar
  55   29   34 ar
  56   30   31 ar
  57   30   58 1
  58   31   32 ar
  59   31   59 1
  60   32   33 ar
  61   32   60 1
  62   33   34 ar
  63   33   61 1
  64   34   62 1

#	End of record

