#	Name: ASD03430155
#	Creating user name:	WinNT
#	Creation time:	15. 06. 2019 20:40

#	Modifying user name:	WinNT
#	Modification time:	15. 06. 2019 20:40

#	Program:	/corina/corina34_cracker 3.40 0067  02.08.2006

@<TRIPOS>MOLECULE
ASD03430155
  56   61    0    0    0
SMALL
NO_CHARGES


@<TRIPOS>ATOM
   1 C1            -0.0166     1.3731     0.0096 C.ar    
   2 C2             0.0021    -0.0041     0.0020 C.ar    
   3 C3             1.2042    -0.6801    -0.0037 C.ar    
   4 C4             2.4064     0.0226     0.0069 C.ar    
   5 C5             2.3789     1.4121     0.0039 C.ar    
   6 C6             1.1699     2.0972     0.0022 C.ar    
   7 O7             3.4725    -0.8269     0.0325 O.3     
   8 C8             1.5601    -2.1417    -0.0330 C.3     
   9 C9             3.0504    -2.1336    -0.4017 C.3     
  10 C10            0.4369    -3.8650     1.0109 C.ar    
  11 C11            1.3140    -2.8180     1.2832 C.ar    
  12 C12            0.7430    -2.9080    -1.0329 C.2     
  13 N13            0.1236    -3.8915    -0.3499 N.am    
  14 O14            0.6571    -2.6857    -2.2222 O.2     
  15 C15            1.7632    -2.5964     2.5654 C.ar    
  16 C16            1.3449    -3.4168     3.5984 C.ar    
  17 C17            0.4739    -4.4591     3.3397 C.ar    
  18 C18            0.0205    -4.6852     2.0566 C.ar    
  19 C19           -1.1514     2.3780     0.0353 C.3     
  20 C20           -0.4169     3.6802     0.4334 C.3     
  21 O21            0.9269     3.4375    -0.0164 O.3     
  22 C22           -0.7732    -4.8739    -0.9637 C.3     
  23 C23           -2.1860    -4.3503    -0.9365 C.2     
  24 O24           -3.0682    -4.5484     0.0531 O.3     
  25 C25           -4.2149    -3.9332    -0.2771 C.2     
  26 C26           -4.0180    -3.3524    -1.4920 C.2     
  27 N27           -2.7397    -3.6308    -1.8661 N.2     
  28 C28           -5.0026    -2.5654    -2.2565 C.2     
  29 O29           -6.1176    -2.3839    -1.8062 O.2     
  30 N30           -4.6670    -2.0471    -3.4545 N.am    
  31 C31           -5.6455    -1.2650    -4.2143 C.3     
  32 C32           -5.6143     0.1895    -3.7406 C.3     
  33 C33           -5.2998    -1.3239    -5.7035 C.3     
  34 H34           -0.9264    -0.5557     0.0009 H       
  35 H35            3.3066     1.9651     0.0036 H       
  36 H36            3.1836    -2.2456    -1.4777 H       
  37 H37            3.5871    -2.9132     0.1390 H       
  38 H38            2.4432    -1.7815     2.7654 H       
  39 H39            1.6983    -3.2437     4.6042 H       
  40 H40            0.1473    -5.0993     4.1458 H       
  41 H41           -0.6595    -5.5014     1.8622 H       
  42 H42           -1.6088     2.4743    -0.9494 H       
  43 H43           -1.8955     2.1061     0.7839 H       
  44 H44           -0.8473     4.5392    -0.0813 H       
  45 H45           -0.4426     3.8232     1.5137 H       
  46 H46           -0.4699    -5.0476    -1.9962 H       
  47 H47           -0.7219    -5.8100    -0.4076 H       
  48 H48           -5.1214    -3.9051     0.3094 H       
  49 H49           -3.7777    -2.1918    -3.8137 H       
  50 H50           -6.6420    -1.6774    -4.0560 H       
  51 H51           -6.3423     0.7714    -4.3058 H       
  52 H52           -5.8606     0.2314    -2.6796 H       
  53 H53           -4.6178     0.6019    -3.8989 H       
  54 H54           -5.3220    -2.3601    -6.0410 H       
  55 H55           -6.0278    -0.7420    -6.2688 H       
  56 H56           -4.3033    -0.9115    -5.8618 H       
@<TRIPOS>BOND
   1    1    2 ar
   2    1    6 ar
   3    1   19 1
   4    2    3 ar
   5    2   34 1
   6    3    4 ar
   7    3    8 1
   8    4    5 ar
   9    4    7 1
  10    5    6 ar
  11    5   35 1
  12    6   21 1
  13    7    9 1
  14    8    9 1
  15    8   11 1
  16    8   12 1
  17    9   36 1
  18    9   37 1
  19   10   11 ar
  20   10   13 1
  21   10   18 ar
  22   11   15 ar
  23   12   13 am
  24   12   14 2
  25   13   22 1
  26   15   16 ar
  27   15   38 1
  28   16   17 ar
  29   16   39 1
  30   17   18 ar
  31   17   40 1
  32   18   41 1
  33   19   20 1
  34   19   42 1
  35   19   43 1
  36   20   21 1
  37   20   44 1
  38   20   45 1
  39   22   23 1
  40   22   46 1
  41   22   47 1
  42   23   24 1
  43   23   27 2
  44   24   25 1
  45   25   26 2
  46   25   48 1
  47   26   27 1
  48   26   28 1
  49   28   29 2
  50   28   30 am
  51   30   31 1
  52   30   49 1
  53   31   32 1
  54   31   33 1
  55   31   50 1
  56   32   51 1
  57   32   52 1
  58   32   53 1
  59   33   54 1
  60   33   55 1
  61   33   56 1

#	End of record

