#	Name: ASD01911268
#	Creating user name:	WinNT
#	Creation time:	15. 06. 2019 19:57

#	Modifying user name:	WinNT
#	Modification time:	15. 06. 2019 19:57

#	Program:	/corina/corina34_cracker 3.40 0067  02.08.2006

@<TRIPOS>MOLECULE
ASD01911268
  44   47    0    0    0
SMALL
NO_CHARGES


@<TRIPOS>ATOM
   1 C1            -0.8558     0.7765    -0.5353 C.3     
   2 C2             0.1189    -0.0696     0.2898 C.3     
   3 N3             1.1059    -0.6724    -0.6164 N.am    
   4 C4             1.8566     0.2033    -1.5266 C.3     
   5 C5             0.8625     1.0464    -2.3313 C.3     
   6 C6            -0.0669     1.7891    -1.3686 C.3     
   7 C7             1.3190    -2.0032    -0.6124 C.2     
   8 O8             2.0564    -2.5032    -1.4396 O.2     
   9 C9             0.6567    -2.8543     0.3971 C.ar    
  10 C10            2.6844    -0.6353    -2.4660 C.2     
  11 N11            3.9351    -0.9864    -2.2986 N.2     
  12 C12            4.2528    -1.7272    -3.3841 C.2     
  13 N13            3.1870    -1.7820    -4.1396 N.2     
  14 O14            2.2786    -1.1654    -3.6240 O.3     
  15 C15            5.5658    -2.3595    -3.6658 C.ar    
  16 C16            5.7495    -3.0991    -4.8320 C.ar    
  17 C17            6.9722    -3.6856    -5.0903 C.ar    
  18 C18            8.0150    -3.5408    -4.1941 C.ar    
  19 C19            7.8389    -2.8069    -3.0320 C.ar    
  20 C20            6.6202    -2.2106    -2.7675 C.ar    
  21 F21            8.8610    -2.6693    -2.1594 F       
  22 C22            0.3931    -4.1969     0.1177 C.ar    
  23 C23           -0.2252    -4.9866     1.0632 C.ar    
  24 C24           -0.5853    -4.4501     2.2900 C.ar    
  25 C25           -0.3264    -3.1175     2.5725 C.ar    
  26 C26            0.2970    -2.3206     1.6365 C.ar    
  27 F27           -1.1911    -5.2284     3.2132 F       
  28 H28           -1.4294     0.1284    -1.1979 H       
  29 H29           -1.5344     1.3059     0.1336 H       
  30 H30            0.6284     0.5638     1.0159 H       
  31 H31           -0.4290    -0.8562     0.8087 H       
  32 H32            2.5078     0.8589    -0.9485 H       
  33 H33            1.4069     1.7677    -2.9407 H       
  34 H34            0.2727     0.3957    -2.9770 H       
  35 H35           -0.7594     2.4089    -1.9381 H       
  36 H36            0.5256     2.4209    -0.7069 H       
  37 H37            4.9361    -3.2137    -5.5331 H       
  38 H38            7.1144    -4.2592    -5.9942 H       
  39 H39            8.9698    -4.0014    -4.4002 H       
  40 H40            6.4828    -1.6386    -1.8618 H       
  41 H41            0.6729    -4.6157    -0.8377 H       
  42 H42           -0.4298    -6.0249     0.8480 H       
  43 H43           -0.6093    -2.7046     3.5295 H       
  44 H44            0.4986    -1.2828     1.8577 H       
@<TRIPOS>BOND
   1    1    2 1
   2    1    6 1
   3    1   28 1
   4    1   29 1
   5    2    3 1
   6    2   30 1
   7    2   31 1
   8    3    4 1
   9    3    7 am
  10    4    5 1
  11    4   10 1
  12    4   32 1
  13    5    6 1
  14    5   33 1
  15    5   34 1
  16    6   35 1
  17    6   36 1
  18    7    8 2
  19    7    9 1
  20    9   22 ar
  21    9   26 ar
  22   10   11 2
  23   10   14 1
  24   11   12 1
  25   12   13 2
  26   12   15 1
  27   13   14 1
  28   15   16 ar
  29   15   20 ar
  30   16   17 ar
  31   16   37 1
  32   17   18 ar
  33   17   38 1
  34   18   19 ar
  35   18   39 1
  36   19   20 ar
  37   19   21 1
  38   20   40 1
  39   22   23 ar
  40   22   41 1
  41   23   24 ar
  42   23   42 1
  43   24   25 ar
  44   24   27 1
  45   25   26 ar
  46   25   43 1
  47   26   44 1

#	End of record

