#	Name: ASD01200020
#	Creating user name:	WinNT
#	Creation time:	15. 06. 2019 19:08

#	Modifying user name:	WinNT
#	Modification time:	15. 06. 2019 19:08

#	Program:	/corina/corina34_cracker 3.40 0067  02.08.2006

@<TRIPOS>MOLECULE
ASD01200020
  51   54    0    0    0
SMALL
NO_CHARGES


@<TRIPOS>ATOM
   1 C1            -0.4046     1.6000    -0.0496 C.3     
   2 C2             0.0448     0.1711     0.2620 C.3     
   3 C3            -0.5255     1.0533     1.3743 C.3     
   4 C4            -0.8185    -0.9558    -0.2439 C.2     
   5 N5            -0.5359    -2.2279     0.1001 N.am    
   6 C6            -1.2715    -3.2746    -0.4434 C.2     
   7 S7            -1.0223    -4.9302    -0.0968 S.3     
   8 C8            -2.3380    -5.3666    -1.1841 C.2     
   9 C9            -2.8375    -4.2425    -1.7012 C.2     
  10 N10           -2.2499    -3.1373    -1.2825 N.2     
  11 O11           -1.7675    -0.7180    -0.9606 O.2     
  12 C12            1.5265    -0.1035     0.2823 C.ar    
  13 C13            0.6846     2.6408    -0.3166 C.3     
  14 C14            1.4346     2.2764    -1.5994 C.3     
  15 C15            2.5238     3.3171    -1.8665 C.3     
  16 C16            1.8826     4.6972    -2.0252 C.3     
  17 C17            1.1326     5.0616    -0.7423 C.3     
  18 C18            0.0434     4.0208    -0.4753 C.3     
  19 C19            2.0832    -0.9614    -0.6477 C.ar    
  20 C20            3.4423    -1.2133    -0.6291 C.ar    
  21 C21            4.2447    -0.6070     0.3194 C.ar    
  22 C22            3.6880     0.2515     1.2489 C.ar    
  23 C23            2.3296     0.5068     1.2275 C.ar    
  24 S24            5.9768    -0.9290     0.3439 S.o2    
  25 O25            6.3564    -0.7018     1.6943 O.2     
  26 O26            6.1024    -2.2158    -0.2458 O.2     
  27 C27            6.6885     0.3400    -0.7395 C.3     
  28 H28           -1.3245     1.7250    -0.6208 H       
  29 H29            0.1710     1.4352     2.1208 H       
  30 H30           -1.5250     0.8187     1.7402 H       
  31 H31            0.1808    -2.4130     0.7270 H       
  32 H32           -2.6801    -6.3690    -1.3956 H       
  33 H33           -3.6589    -4.2372    -2.4025 H       
  34 H34            1.3830     2.6586     0.5200 H       
  35 H35            1.8914     1.2932    -1.4864 H       
  36 H36            0.7362     2.2585    -2.4361 H       
  37 H37            3.2223     3.3350    -1.0299 H       
  38 H38            3.0582     3.0576    -2.7804 H       
  39 H39            2.6586     5.4387    -2.2154 H       
  40 H40            1.1842     4.6793    -2.8618 H       
  41 H41            1.8310     5.0795     0.0943 H       
  42 H42            0.6758     6.0448    -0.8554 H       
  43 H43           -0.6550     4.0030    -1.3119 H       
  44 H44           -0.4909     4.2804     0.4386 H       
  45 H45            1.4564    -1.4351    -1.3887 H       
  46 H46            3.8772    -1.8841    -1.3552 H       
  47 H47            4.3149     0.7250     1.9901 H       
  48 H48            1.8947     1.1776     1.9536 H       
  49 H49            6.4527     1.3283    -0.3451 H       
  50 H50            7.7704     0.2149    -0.7836 H       
  51 H51            6.2700     0.2391    -1.7409 H       
@<TRIPOS>BOND
   1    1    2 1
   2    1   13 1
   3    1    3 1
   4    1   28 1
   5    2    3 1
   6    2    4 1
   7    2   12 1
   8    3   29 1
   9    3   30 1
  10    4    5 am
  11    4   11 2
  12    5    6 1
  13    5   31 1
  14    6    7 1
  15    6   10 2
  16    7    8 1
  17    8    9 2
  18    8   32 1
  19    9   10 1
  20    9   33 1
  21   12   19 ar
  22   12   23 ar
  23   13   14 1
  24   13   18 1
  25   13   34 1
  26   14   15 1
  27   14   35 1
  28   14   36 1
  29   15   16 1
  30   15   37 1
  31   15   38 1
  32   16   17 1
  33   16   39 1
  34   16   40 1
  35   17   18 1
  36   17   41 1
  37   17   42 1
  38   18   43 1
  39   18   44 1
  40   19   20 ar
  41   19   45 1
  42   20   21 ar
  43   20   46 1
  44   21   22 ar
  45   21   24 1
  46   22   23 ar
  47   22   47 1
  48   23   48 1
  49   24   25 2
  50   24   26 2
  51   24   27 1
  52   27   49 1
  53   27   50 1
  54   27   51 1

#	End of record

