#	Name: ASD01910342
#	Creating user name:	WinNT
#	Creation time:	15. 06. 2019 19:55

#	Modifying user name:	WinNT
#	Modification time:	15. 06. 2019 19:55

#	Program:	/corina/corina34_cracker 3.40 0067  02.08.2006

@<TRIPOS>MOLECULE
ASD01910342
  39   41    0    0    0
SMALL
NO_CHARGES


@<TRIPOS>ATOM
   1 C1             0.0311     1.4276     0.0784 C.ar    
   2 C2             0.0422    -0.0042     0.0587 C.1     
   3 C3             0.0512    -1.1780     0.0425 C.1     
   4 C4             0.0623    -2.6099     0.0228 C.ar    
   5 C5            -1.1415    -3.3181    -0.0671 C.ar    
   6 C6            -1.1302    -4.6835    -0.0863 C.ar    
   7 C7             0.0836    -5.3739    -0.0158 C.ar    
   8 C8             1.2866    -4.6671     0.0740 C.ar    
   9 C9             1.2771    -3.3015     0.0875 C.ar    
  10 C10            0.0949    -6.8499    -0.0357 C.2     
  11 O11           -0.7605    -7.4725     0.5634 O.2     
  12 N12            1.0535    -7.5073    -0.7178 N.am    
  13 C13            1.1598    -8.9735    -0.6521 C.3     
  14 C14            1.2319    -9.5177    -2.0833 C.3     
  15 O15            2.2691    -8.8372    -2.7940 O.3     
  16 C16            2.0544    -7.4312    -2.9383 C.3     
  17 C17            2.0209    -6.7806    -1.5553 C.3     
  18 C18            1.2311     2.1382     0.1681 C.ar    
  19 C19            1.2128     3.5171     0.1866 C.ar    
  20 C20            0.0104     4.1988     0.1172 C.ar    
  21 C21           -1.1830     3.5046     0.0287 C.ar    
  22 C22           -1.1816     2.1232     0.0022 C.ar    
  23 F23           -2.3472     1.4458    -0.0847 F       
  24 H24           -2.0791    -2.7849    -0.1209 H       
  25 H25           -2.0590    -5.2301    -0.1557 H       
  26 H26            2.2237    -5.2010     0.1288 H       
  27 H27            2.2065    -2.7556     0.1566 H       
  28 H28            2.0620    -9.2521    -0.1075 H       
  29 H29            0.2847    -9.3827    -0.1474 H       
  30 H30            1.4492   -10.5855    -2.0563 H       
  31 H31            0.2782    -9.3520    -2.5843 H       
  32 H32            2.8634    -6.9979    -3.5264 H       
  33 H33            1.1036    -7.2579    -3.4424 H       
  34 H34            1.7182    -5.7375    -1.6475 H       
  35 H35            3.0091    -6.8376    -1.0988 H       
  36 H36            2.1708     1.6087     0.2231 H       
  37 H37            2.1398     4.0668     0.2559 H       
  38 H38            0.0036     5.2787     0.1326 H       
  39 H39           -2.1173     4.0436    -0.0248 H       
@<TRIPOS>BOND
   1    1    2 1
   2    1   18 ar
   3    1   22 ar
   4    2    3 3
   5    3    4 1
   6    4    5 ar
   7    4    9 ar
   8    5    6 ar
   9    5   24 1
  10    6    7 ar
  11    6   25 1
  12    7    8 ar
  13    7   10 1
  14    8    9 ar
  15    8   26 1
  16    9   27 1
  17   10   11 2
  18   10   12 am
  19   12   13 1
  20   12   17 1
  21   13   14 1
  22   13   28 1
  23   13   29 1
  24   14   15 1
  25   14   30 1
  26   14   31 1
  27   15   16 1
  28   16   17 1
  29   16   32 1
  30   16   33 1
  31   17   34 1
  32   17   35 1
  33   18   19 ar
  34   18   36 1
  35   19   20 ar
  36   19   37 1
  37   20   21 ar
  38   20   38 1
  39   21   22 ar
  40   21   39 1
  41   22   23 1

#	End of record

