#	Name: ASD04880430
#	Creating user name:	WinNT
#	Creation time:	15. 06. 2019 20:53

#	Modifying user name:	WinNT
#	Modification time:	15. 06. 2019 20:53

#	Program:	/corina/corina34_cracker 3.40 0067  02.08.2006

@<TRIPOS>MOLECULE
ASD04880430
  50   53    0    0    0
SMALL
NO_CHARGES


@<TRIPOS>ATOM
   1 C1            -0.0504     1.3761     0.3510 C.ar    
   2 C2            -0.0291    -0.0061     0.2900 C.ar    
   3 C3            -1.2109    -0.7169     0.2642 C.ar    
   4 C4            -2.4313    -0.0379     0.2998 C.ar    
   5 C5            -2.4450     1.3576     0.3613 C.ar    
   6 C6            -1.2554     2.0550     0.3918 C.ar    
   7 C7            -3.6990    -0.7908     0.2720 C.2     
   8 N8            -3.8005    -2.0739     0.2160 N.2     
   9 N9            -5.1132    -2.5410     0.2019 N.am    
  10 C10           -6.0284    -1.3900     0.2570 C.3     
  11 C11           -5.0798    -0.1761     0.3115 C.3     
  12 C12           -5.4840    -3.8356     0.1463 C.2     
  13 C13           -4.4634    -4.8898    -0.0308 C.ar    
  14 O14           -6.6583    -4.1362     0.2418 O.2     
  15 C15           -4.8225    -6.2346     0.0621 C.ar    
  16 C16           -3.8604    -7.2169    -0.1050 C.ar    
  17 C17           -2.5432    -6.8625    -0.3640 C.ar    
  18 C18           -2.1859    -5.5298    -0.4564 C.ar    
  19 C19           -3.1372    -4.5433    -0.2974 C.ar    
  20 S20            1.4643     2.2756     0.3841 S.o2    
  21 C21            1.8460     2.5840    -1.3623 C.3     
  22 O22            1.1362     3.4902     1.0448 O.2     
  23 O23           -4.2058    -8.5282    -0.0148 O.3     
  24 O24            2.4001     1.3657     0.9459 O.2     
  25 C25           -5.0256    -9.0391    -0.9705 C.ar    
  26 C26           -5.4998   -10.3382    -0.8574 C.ar    
  27 C27           -6.3330   -10.8552    -1.8304 C.ar    
  28 C28           -6.6945   -10.0793    -2.9163 C.ar    
  29 C29           -6.2230    -8.7846    -3.0317 C.ar    
  30 C30           -5.3945    -8.2607    -2.0584 C.ar    
  31 H31            0.9151    -0.5297     0.2623 H       
  32 H32           -1.1929    -1.7957     0.2163 H       
  33 H33           -3.3849     1.8889     0.3890 H       
  34 H34           -1.2645     3.1339     0.4393 H       
  35 H35           -6.6528    -1.3534    -0.6357 H       
  36 H36           -6.6441    -1.4322     1.1555 H       
  37 H37           -5.2282     0.3839     1.2348 H       
  38 H38           -5.2316     0.4669    -0.5554 H       
  39 H39           -5.8474    -6.5089     0.2640 H       
  40 H40           -1.7949    -7.6304    -0.4935 H       
  41 H41           -1.1596    -5.2605    -0.6581 H       
  42 H42           -2.8546    -3.5035    -0.3702 H       
  43 H43            1.0395     3.1616    -1.8139 H       
  44 H44            2.7790     3.1425    -1.4371 H       
  45 H45            1.9488     1.6331    -1.8851 H       
  46 H46           -5.2174   -10.9447    -0.0096 H       
  47 H47           -6.7021   -11.8664    -1.7430 H       
  48 H48           -7.3461   -10.4854    -3.6759 H       
  49 H49           -6.5063    -8.1809    -3.8812 H       
  50 H50           -5.0268    -7.2493    -2.1487 H       
@<TRIPOS>BOND
   1    1    2 ar
   2    1   20 1
   3    1    6 ar
   4    2    3 ar
   5    2   31 1
   6    3    4 ar
   7    3   32 1
   8    4    5 ar
   9    4    7 1
  10    5    6 ar
  11    5   33 1
  12    6   34 1
  13    7    8 2
  14    7   11 1
  15    8    9 1
  16    9   10 1
  17    9   12 am
  18   10   11 1
  19   10   35 1
  20   10   36 1
  21   11   37 1
  22   11   38 1
  23   12   13 1
  24   12   14 2
  25   13   15 ar
  26   13   19 ar
  27   15   16 ar
  28   15   39 1
  29   16   17 ar
  30   16   23 1
  31   17   18 ar
  32   17   40 1
  33   18   19 ar
  34   18   41 1
  35   19   42 1
  36   20   21 1
  37   20   22 2
  38   20   24 2
  39   21   43 1
  40   21   44 1
  41   21   45 1
  42   23   25 1
  43   25   26 ar
  44   25   30 ar
  45   26   27 ar
  46   26   46 1
  47   27   28 ar
  48   27   47 1
  49   28   29 ar
  50   28   48 1
  51   29   30 ar
  52   29   49 1
  53   30   50 1

#	End of record

