#	Name: ASD01140301
#	Creating user name:	WinNT
#	Creation time:	15. 06. 2019 19:00

#	Modifying user name:	WinNT
#	Modification time:	15. 06. 2019 19:00

#	Program:	/corina/corina34_cracker 3.40 0067  02.08.2006

@<TRIPOS>MOLECULE
ASD01140301
  27   29    0    0    0
SMALL
NO_CHARGES


@<TRIPOS>ATOM
   1 C1            -0.0166     1.3735     0.0096 C.ar    
   2 C2             0.0021    -0.0041     0.0020 C.ar    
   3 C3             1.2055    -0.6931    -0.0128 C.ar    
   4 C4             2.3990    -0.0050    -0.0205 C.ar    
   5 C5             1.1784     2.0872     0.0020 C.ar    
   6 N6             1.4530     3.4427     0.0062 N.pl3   
   7 C7             2.3956     1.3882    -0.0134 C.ar    
   8 C8             3.4576     2.4065    -0.0177 C.ar    
   9 C9             2.8131     3.6573    -0.0058 C.ar    
  10 C10            4.8486     2.3668    -0.0304 C.ar    
  11 C11            5.5508     3.5694    -0.0301 C.ar    
  12 N12            4.9060     4.7341    -0.0176 N.ar    
  13 C13            3.5960     4.8122    -0.0074 C.ar    
  14 C14            7.0281     3.5525    -0.0433 C.2     
  15 O15            7.7150     4.7115    -0.0432 O.3     
  16 O16            7.6234     2.4937    -0.0544 O.2     
  17 C17            9.1640     4.6190    -0.0566 C.3     
  18 H18           -0.9595     1.9002     0.0169 H       
  19 H19           -0.9285    -0.5521     0.0080 H       
  20 H20            1.2070    -1.7731    -0.0179 H       
  21 H21            3.3348    -0.5442    -0.0317 H       
  22 H22            0.7822     4.1433     0.0163 H       
  23 H23            5.3729     1.4226    -0.0398 H       
  24 H24            3.1187     5.7809     0.0022 H       
  25 H25            9.5017     4.0782     0.8275 H       
  26 H26            9.4859     4.0879    -0.9523 H       
  27 H27            9.5921     5.6214    -0.0549 H       
@<TRIPOS>BOND
   1    1    2 ar
   2    1    5 ar
   3    1   18 1
   4    2    3 ar
   5    2   19 1
   6    3    4 ar
   7    3   20 1
   8    4    7 ar
   9    4   21 1
  10    5    7 ar
  11    5    6 1
  12    6    9 1
  13    6   22 1
  14    7    8 1
  15    8   10 ar
  16    8    9 ar
  17    9   13 ar
  18   10   11 ar
  19   10   23 1
  20   11   12 ar
  21   11   14 1
  22   12   13 ar
  23   13   24 1
  24   14   15 1
  25   14   16 2
  26   15   17 1
  27   17   25 1
  28   17   26 1
  29   17   27 1

#	End of record

