#	Name: ASD01916000
#	Creating user name:	WinNT
#	Creation time:	15. 06. 2019 20:06

#	Modifying user name:	WinNT
#	Modification time:	15. 06. 2019 20:06

#	Program:	/corina/corina34_cracker 3.40 0067  02.08.2006

@<TRIPOS>MOLECULE
ASD01916000
  45   46    0    0    0
SMALL
NO_CHARGES


@<TRIPOS>ATOM
   1 C1            -0.0049     1.3405     0.1011 C.ar    
   2 C2            -0.0416    -0.0544    -0.0381 C.ar    
   3 C3            -1.2726    -0.6803    -0.0485 C.ar    
   4 C4            -2.4298     0.0896     0.0788 C.ar    
   5 C5            -3.7519    -0.5734     0.0685 C.2     
   6 N6            -4.4331    -0.7361     1.2200 N.am    
   7 O7            -4.2240    -0.9715    -0.9784 O.2     
   8 C8            -5.7882    -1.2923     1.1971 C.3     
   9 C9            -5.7536    -2.6948     0.5867 C.3     
  10 C10           -6.3314    -1.3709     2.6252 C.3     
  11 C11           -6.6948    -0.3920     0.3554 C.3     
  12 C12            1.2467     2.0362     0.1171 C.1     
  13 C13            2.2728     2.6065     0.1303 C.1     
  14 C14            3.5243     3.3022     0.1464 C.ar    
  15 C15            3.5533     4.6923     0.2854 C.ar    
  16 C16            5.9288     3.2706     0.0450 C.ar    
  17 C17            4.7643     5.3563     0.3000 C.ar    
  18 N18           -2.3599     1.4102     0.2094 N.ar    
  19 C19           -1.2111     2.0445     0.2183 C.ar    
  20 C20            4.7254     2.5924     0.0287 C.ar    
  21 C21           -3.8184    -0.3569     2.4946 C.3     
  22 C22           -1.3655    -2.1772    -0.1960 C.3     
  23 C23            5.9489     4.6474     0.1767 C.ar    
  24 F24            4.7075     1.2476    -0.1001 F       
  25 F25            4.7942     6.7003     0.4342 F       
  26 H26            0.8702    -0.6251    -0.1351 H       
  27 H27           -5.1078    -3.3362     1.1863 H       
  28 H28           -6.7619    -3.1086     0.5696 H       
  29 H29           -5.3666    -2.6388    -0.4308 H       
  30 H30           -6.3561    -0.3717     3.0601 H       
  31 H31           -7.3397    -1.7847     2.6082 H       
  32 H32           -5.6856    -2.0123     3.2249 H       
  33 H33           -6.3078    -0.3360    -0.6620 H       
  34 H34           -7.7031    -0.8057     0.3384 H       
  35 H35           -6.7194     0.6072     0.7903 H       
  36 H36            2.6310     5.2462     0.3808 H       
  37 H37            6.8559     2.7250    -0.0502 H       
  38 H38           -1.1946     3.1189     0.3266 H       
  39 H39           -4.1285     0.6534     2.7612 H       
  40 H40           -4.1361    -1.0516     3.2721 H       
  41 H41           -2.7331    -0.3904     2.3988 H       
  42 H42           -1.2589    -2.6460     0.7822 H       
  43 H43           -2.3336    -2.4410    -0.6218 H       
  44 H44           -0.5711    -2.5273    -0.8552 H       
  45 H45            6.8928     5.1722     0.1888 H       
@<TRIPOS>BOND
   1    1    2 ar
   2    1   12 1
   3    1   19 ar
   4    2    3 ar
   5    2   26 1
   6    3    4 ar
   7    3   22 1
   8    4   18 ar
   9    4    5 1
  10    5    6 am
  11    5    7 2
  12    6    8 1
  13    6   21 1
  14    8    9 1
  15    8   10 1
  16    8   11 1
  17    9   27 1
  18    9   28 1
  19    9   29 1
  20   10   30 1
  21   10   31 1
  22   10   32 1
  23   11   33 1
  24   11   34 1
  25   11   35 1
  26   12   13 3
  27   13   14 1
  28   14   15 ar
  29   14   20 ar
  30   15   17 ar
  31   15   36 1
  32   16   23 ar
  33   16   20 ar
  34   16   37 1
  35   17   25 1
  36   17   23 ar
  37   18   19 ar
  38   19   38 1
  39   20   24 1
  40   21   39 1
  41   21   40 1
  42   21   41 1
  43   22   42 1
  44   22   43 1
  45   22   44 1
  46   23   45 1

#	End of record

