#	Name: ASD04910445
#	Creating user name:	WinNT
#	Creation time:	15. 06. 2019 20:55

#	Modifying user name:	WinNT
#	Modification time:	15. 06. 2019 20:55

#	Program:	/corina/corina34_cracker 3.40 0067  02.08.2006

@<TRIPOS>MOLECULE
ASD04910445
  64   67    0    0    0
SMALL
NO_CHARGES


@<TRIPOS>ATOM
   1 C1            -0.2701     1.4344     0.2414 C.2     
   2 C2            -0.2096    -0.0709     0.2052 C.3     
   3 C3             1.2513    -0.5213     0.1433 C.3     
   4 O4             0.7505     2.0808     0.2199 O.2     
   5 O5            -1.4581     2.0573     0.2919 O.3     
   6 C6             2.5027    -2.6100     0.0518 C.2     
   7 C7             2.5620    -4.0869     0.0163 C.ar    
   8 C8             3.7954    -4.7376    -0.0420 C.ar    
   9 C9             3.8438    -6.1159    -0.0745 C.ar    
  10 C10            2.6732    -6.8530    -0.0498 C.ar    
  11 C11            1.4473    -6.2142     0.0080 C.ar    
  12 C12            1.3851    -4.8366     0.0467 C.ar    
  13 O13            3.5294    -1.9598     0.0303 O.2     
  14 N14            1.3101    -1.9847     0.1081 N.am    
  15 C15            2.7337    -8.3584    -0.0865 C.3     
  16 C16            2.5545    -8.9106     1.3291 C.3     
  17 C17            2.7398   -10.4293     1.3113 C.3     
  18 C18            2.5606   -10.9815     2.7268 C.3     
  19 O19            1.6915    -8.8566    -0.9276 O.3     
  20 C20            1.9543    -9.9901    -1.6302 C.ar    
  21 C21            3.2169   -10.5631    -1.5752 C.ar    
  22 C22            3.4843   -11.7145    -2.2881 C.ar    
  23 C23            2.4894   -12.2994    -3.0606 C.ar    
  24 C24            1.2259   -11.7254    -3.1153 C.ar    
  25 C25            0.9582   -10.5770    -2.3977 C.ar    
  26 N26            3.9916   -14.1331    -3.8060 N.2     
  27 N27            2.7604   -13.4680    -3.7850 N.pl3   
  28 C28            1.8771   -14.1161    -4.5610 C.2     
  29 C29            2.5154   -15.2164    -5.1032 C.ar    
  30 C30            2.1332   -16.2584    -5.9745 C.ar    
  31 C31            3.0377   -17.2104    -6.3159 C.ar    
  32 C32            4.3457   -17.1896    -5.8269 C.ar    
  33 C33            4.7795   -16.2174    -4.9859 C.ar    
  34 C34            3.8935   -15.1940    -4.5876 C.ar    
  35 C35            2.6197   -18.3195    -7.2467 C.3     
  36 H36           -0.6767    -0.4750     1.1033 H       
  37 H37           -0.7396    -0.4348    -0.6751 H       
  38 H38            1.7184    -0.1172    -0.7548 H       
  39 H39            1.7812    -0.1574     1.0236 H       
  40 H40           -1.4463     3.0240     0.3136 H       
  41 H41            4.7099    -4.1633    -0.0621 H       
  42 H42            4.7975    -6.6207    -0.1196 H       
  43 H43            0.5372    -6.7954     0.0270 H       
  44 H44            0.4277    -4.3392     0.0963 H       
  45 H45            0.4907    -2.5035     0.1253 H       
  46 H46            3.7001    -8.6737    -0.4799 H       
  47 H47            3.2954    -8.4619     1.9907 H       
  48 H48            1.5538    -8.6709     1.6886 H       
  49 H49            1.9989   -10.8780     0.6497 H       
  50 H50            3.7405   -10.6690     0.9517 H       
  51 H51            2.6927   -12.0634     2.7142 H       
  52 H52            3.3016   -10.5328     3.3884 H       
  53 H53            1.5599   -10.7418     3.0864 H       
  54 H54            3.9906   -10.1079    -0.9747 H       
  55 H55            4.4671   -12.1602    -2.2455 H       
  56 H56            0.4518   -12.1798    -3.7158 H       
  57 H57           -0.0255   -10.1330    -2.4366 H       
  58 H58            0.8500   -13.8292    -4.7314 H       
  59 H59            1.1277   -16.2980    -6.3666 H       
  60 H60            5.0306   -17.9692    -6.1261 H       
  61 H61            5.7967   -16.2269    -4.6232 H       
  62 H62            2.8110   -18.0204    -8.2773 H       
  63 H63            3.1898   -19.2200    -7.0180 H       
  64 H64            1.5562   -18.5203    -7.1181 H       
@<TRIPOS>BOND
   1    1    2 1
   2    1    4 2
   3    1    5 1
   4    2    3 1
   5    2   36 1
   6    2   37 1
   7    3   14 1
   8    3   38 1
   9    3   39 1
  10    5   40 1
  11    6    7 1
  12    6   13 2
  13    6   14 am
  14    7    8 ar
  15    7   12 ar
  16    8    9 ar
  17    8   41 1
  18    9   10 ar
  19    9   42 1
  20   10   11 ar
  21   10   15 1
  22   11   12 ar
  23   11   43 1
  24   12   44 1
  25   14   45 1
  26   15   16 1
  27   15   19 1
  28   15   46 1
  29   16   17 1
  30   16   47 1
  31   16   48 1
  32   17   18 1
  33   17   49 1
  34   17   50 1
  35   18   51 1
  36   18   52 1
  37   18   53 1
  38   19   20 1
  39   20   21 ar
  40   20   25 ar
  41   21   22 ar
  42   21   54 1
  43   22   23 ar
  44   22   55 1
  45   23   24 ar
  46   23   27 1
  47   24   25 ar
  48   24   56 1
  49   25   57 1
  50   26   27 1
  51   26   34 2
  52   27   28 1
  53   28   29 2
  54   28   58 1
  55   29   30 ar
  56   29   34 ar
  57   30   31 ar
  58   30   59 1
  59   31   32 ar
  60   31   35 1
  61   32   33 ar
  62   32   60 1
  63   33   34 ar
  64   33   61 1
  65   35   62 1
  66   35   63 1
  67   35   64 1

#	End of record

