#	Name: ASD01208622
#	Creating user name:	WinNT
#	Creation time:	15. 06. 2019 19:10

#	Modifying user name:	WinNT
#	Modification time:	15. 06. 2019 19:10

#	Program:	/corina/corina34_cracker 3.40 0067  02.08.2006

@<TRIPOS>MOLECULE
ASD01208622
  76   78    0    0    0
SMALL
NO_CHARGES


@<TRIPOS>ATOM
   1 O1             1.2231    -0.0291     1.4768 O.3     
   2 C2             1.0737    -1.3420     1.1981 C.2     
   3 N3             2.1580    -1.9094     0.7560 N.2     
   4 C4             3.2315    -0.8972     0.7192 C.3     
   5 C5             2.6362     0.2373     1.5881 C.3     
   6 C6             3.1043     0.1202     3.0401 C.3     
   7 N7            -1.3717    -1.5231     1.8401 N.pl3   
   8 C8            -0.1947    -2.0628     1.3780 C.2     
   9 C9            -0.4119    -3.3975     1.1130 C.2     
  10 C10           -1.7452    -3.6740     1.4197 C.2     
  11 C11           -2.3206    -2.5060     1.8664 C.2     
  12 C12           -3.7241    -2.3431     2.3005 C.ar    
  13 C13           -4.1826    -1.0982     2.7337 C.ar    
  14 C14           -5.4984    -0.9499     3.1391 C.ar    
  15 C15           -6.3605    -2.0370     3.1155 C.ar    
  16 C16           -5.9089    -3.2763     2.6856 C.ar    
  17 C17           -4.5958    -3.4321     2.2729 C.ar    
  18 O18           -6.7573    -4.3377     2.6644 O.3     
  19 Si19          -7.6848    -4.4190     1.3253 Si      
  20 C20           -6.5984    -4.3622    -0.1870 C.3     
  21 C21           -5.5311    -5.4542    -0.0895 C.3     
  22 C22           -7.4509    -4.5925    -1.4364 C.3     
  23 C23           -8.6522    -6.0111     1.3356 C.3     
  24 C24           -7.6936    -7.1891     1.5209 C.3     
  25 C25           -9.6603    -5.9879     2.4863 C.3     
  26 C26           -8.8634    -2.9764     1.2977 C.3     
  27 C27           -9.9397    -3.2174     0.2374 C.3     
  28 C28           -9.5233    -2.8307     2.6703 C.3     
  29 O29           -5.9459     0.2620     3.5611 O.3     
  30 C30           -4.9782     1.3074     3.6744 C.3     
  31 C31           -5.4539     2.3332     4.7051 C.3     
  32 C32           -4.8050     1.9913     2.3167 C.3     
  33 O33           -6.6430     2.9684     4.2313 O.3     
  34 C34           -7.1731     3.9499     5.1244 C.3     
  35 H35            4.1484    -1.2862     1.1621 H       
  36 H36            3.4083    -0.5545    -0.3003 H       
  37 H37            2.8834     1.2159     1.1768 H       
  38 H38            2.8858    -0.8806     3.4127 H       
  39 H39            4.1780     0.3006     3.0913 H       
  40 H40            2.5825     0.8572     3.6506 H       
  41 H41           -1.5052    -0.6001     2.1068 H       
  42 H42            0.3161    -4.1008     0.7364 H       
  43 H43           -2.2364    -4.6310     1.3238 H       
  44 H44           -3.5121    -0.2517     2.7530 H       
  45 H45           -7.3859    -1.9181     3.4330 H       
  46 H46           -4.2461    -4.3962     1.9345 H       
  47 H47           -6.1156    -3.3871    -0.2512 H       
  48 H48           -5.9968    -6.4305    -0.2242 H       
  49 H49           -4.7810    -5.2994    -0.8651 H       
  50 H50           -5.0552    -5.4107     0.8901 H       
  51 H51           -8.0594    -5.4867    -1.3014 H       
  52 H52           -8.1004    -3.7319    -1.5968 H       
  53 H53           -6.8004    -4.7228    -2.3013 H       
  54 H54           -9.1829    -6.1199     0.3898 H       
  55 H55           -7.0632    -7.2870     0.6371 H       
  56 H56           -7.0678    -7.0141     2.3960 H       
  57 H57           -8.2670    -8.1054     1.6616 H       
  58 H58          -10.4632    -5.2890     2.2520 H       
  59 H59          -10.0762    -6.9858     2.6251 H       
  60 H60           -9.1595    -5.6725     3.4017 H       
  61 H61           -8.3160    -2.0645     1.0591 H       
  62 H62          -10.3812    -4.2029     0.3852 H       
  63 H63          -10.7141    -2.4554     0.3259 H       
  64 H64           -9.4907    -3.1655    -0.7545 H       
  65 H65           -8.7627    -2.8981     3.4482 H       
  66 H66          -10.0221    -1.8635     2.7328 H       
  67 H67          -10.2553    -3.6265     2.8079 H       
  68 H68           -4.0247     0.8868     3.9937 H       
  69 H69           -5.6624     1.8297     5.6492 H       
  70 H70           -4.6773     3.0828     4.8569 H       
  71 H71           -5.7586     2.4119     1.9975 H       
  72 H72           -4.0669     2.7887     2.4032 H       
  73 H73           -4.4661     1.2606     1.5824 H       
  74 H74           -7.4173     3.4800     6.0772 H       
  75 H75           -6.4322     4.7330     5.2849 H       
  76 H76           -8.0742     4.3852     4.6925 H       
@<TRIPOS>BOND
   1    1    2 1
   2    1    5 1
   3    2    3 2
   4    2    8 1
   5    3    4 1
   6    4    5 1
   7    4   35 1
   8    4   36 1
   9    5    6 1
  10    5   37 1
  11    6   38 1
  12    6   39 1
  13    6   40 1
  14    7    8 1
  15    7   11 1
  16    7   41 1
  17    8    9 2
  18    9   10 1
  19    9   42 1
  20   10   11 2
  21   10   43 1
  22   11   12 1
  23   12   13 ar
  24   12   17 ar
  25   13   14 ar
  26   13   44 1
  27   14   15 ar
  28   14   29 1
  29   15   16 ar
  30   15   45 1
  31   16   17 ar
  32   16   18 1
  33   17   46 1
  34   18   19 1
  35   19   20 1
  36   19   23 1
  37   19   26 1
  38   20   21 1
  39   20   22 1
  40   20   47 1
  41   21   48 1
  42   21   49 1
  43   21   50 1
  44   22   51 1
  45   22   52 1
  46   22   53 1
  47   23   24 1
  48   23   25 1
  49   23   54 1
  50   24   55 1
  51   24   56 1
  52   24   57 1
  53   25   58 1
  54   25   59 1
  55   25   60 1
  56   26   27 1
  57   26   28 1
  58   26   61 1
  59   27   62 1
  60   27   63 1
  61   27   64 1
  62   28   65 1
  63   28   66 1
  64   28   67 1
  65   29   30 1
  66   30   31 1
  67   30   32 1
  68   30   68 1
  69   31   33 1
  70   31   69 1
  71   31   70 1
  72   32   71 1
  73   32   72 1
  74   32   73 1
  75   33   34 1
  76   34   74 1
  77   34   75 1
  78   34   76 1

#	End of record

