#	Name: ASD05872036
#	Creating user name:	WinNT
#	Creation time:	15. 06. 2019 21:04

#	Modifying user name:	WinNT
#	Modification time:	15. 06. 2019 21:04

#	Program:	/corina/corina34_cracker 3.40 0067  02.08.2006

@<TRIPOS>MOLECULE
ASD05872036
  61   64    0    0    0
SMALL
NO_CHARGES


@<TRIPOS>ATOM
   1 C1            -0.0168     1.3909     0.0097 C.ar    
   2 C2             0.0021    -0.0041     0.0020 C.ar    
   3 C3            -1.1845    -0.7121     0.0095 C.ar    
   4 C4            -2.3952    -0.0265     0.0248 C.ar    
   5 C5            -2.4171     1.3754     0.0325 C.ar    
   6 C6            -1.2170     2.0760     0.0306 C.ar    
   7 C7            -3.8128    -0.4423     0.0361 C.2     
   8 C8            -4.5353     0.7114     0.0492 C.2     
   9 O9            -3.7097     1.7643     0.0470 O.3     
  10 O10            1.1546     2.0819     0.0022 O.3     
  11 O11            1.1896    -0.6677    -0.0133 O.3     
  12 C12           -6.0401     0.7908     0.0644 C.3     
  13 O13           -6.5025     0.8090     1.4164 O.3     
  14 C14           -7.8475     0.8791     1.6083 C.ar    
  15 C15           -8.3667     0.9005     2.9031 C.ar    
  16 C16           -9.7313     0.9716     3.1104 C.ar    
  17 C17          -10.5973     1.0229     2.0249 C.ar    
  18 C18          -10.0729     1.0017     0.7248 C.ar    
  19 C19           -8.6980     0.9349     0.5208 C.ar    
  20 O20          -11.9415     1.0949     1.9226 O.3     
  21 C21          -12.3321     1.1223     0.6432 C.2     
  22 C22          -11.2441     1.0687    -0.1733 C.2     
  23 C23          -13.7626     1.2013     0.1759 C.3     
  24 C24          -11.2363     1.0758    -1.6423 C.2     
  25 O25          -11.1776     2.1302    -2.2447 O.2     
  26 O26           -7.5238     0.8506     3.9692 O.3     
  27 C27           -4.3345    -1.8156     0.0337 C.2     
  28 O28           -4.5403    -2.3895     1.0855 O.2     
  29 C29            1.0667     3.5081     0.0107 C.3     
  30 C30           -8.1186     0.8760     5.2683 C.3     
  31 O31           -4.5850    -2.4395    -1.1349 O.3     
  32 O32          -11.2942    -0.0868    -2.3224 O.3     
  33 C33          -11.3539    -1.4129    -4.3640 C.3     
  34 C34          -11.2825    -0.0039    -3.7719 C.3     
  35 O35            1.7244    -0.9664     1.3218 O.3     
  36 S36            3.0529    -1.7088     1.3047 S.o2    
  37 O37            3.3178    -2.0885     2.6481 O.2     
  38 O38            2.9783    -2.6402     0.2341 O.2     
  39 O39            4.1275    -0.7008     0.9231 O.3     
  40 Na40           4.6105     0.5599     2.3852 Du      
  41 H41           -1.1722    -1.7920     0.0033 H       
  42 H42           -1.2222     3.1560     0.0365 H       
  43 H43           -6.3611     1.7014    -0.4416 H       
  44 H44           -6.4550    -0.0761    -0.4498 H       
  45 H45          -10.1246     0.9870     4.1161 H       
  46 H46           -8.2983     0.9188    -0.4824 H       
  47 H47          -14.4260     1.2329     1.0402 H       
  48 H48          -13.9006     2.1027    -0.4211 H       
  49 H49          -13.9960     0.3254    -0.4294 H       
  50 H50            0.5400     3.8343     0.9075 H       
  51 H51            2.0700     3.9341     0.0034 H       
  52 H52            0.5230     3.8439    -0.8723 H       
  53 H53           -7.3370     0.8308     6.0267 H       
  54 H54           -8.6890     1.7970     5.3888 H       
  55 H55           -8.7835     0.0196     5.3803 H       
  56 H56           -4.9274    -3.3425    -1.0859 H       
  57 H57          -11.3451    -1.3506    -5.4522 H       
  58 H58          -10.4950    -1.9928    -4.0263 H       
  59 H59          -12.2725    -1.8990    -4.0353 H       
  60 H60          -12.1414     0.5761    -4.1096 H       
  61 H61          -10.3640     0.4822    -4.1006 H       
@<TRIPOS>BOND
   1    1    2 ar
   2    1   10 1
   3    1    6 ar
   4    2    3 ar
   5    2   11 1
   6    3    4 ar
   7    3   41 1
   8    4    5 ar
   9    4    7 1
  10    5    6 ar
  11    5    9 1
  12    6   42 1
  13    7    8 2
  14    7   27 1
  15    8    9 1
  16    8   12 1
  17   10   29 1
  18   11   35 1
  19   12   13 1
  20   12   43 1
  21   12   44 1
  22   13   14 1
  23   14   15 ar
  24   14   19 ar
  25   15   16 ar
  26   15   26 1
  27   16   17 ar
  28   16   45 1
  29   17   18 ar
  30   17   20 1
  31   18   19 ar
  32   18   22 1
  33   19   46 1
  34   20   21 1
  35   21   22 2
  36   21   23 1
  37   22   24 1
  38   23   47 1
  39   23   48 1
  40   23   49 1
  41   24   25 2
  42   24   32 1
  43   26   30 1
  44   27   28 2
  45   27   31 1
  46   29   50 1
  47   29   51 1
  48   29   52 1
  49   30   53 1
  50   30   54 1
  51   30   55 1
  52   31   56 1
  53   32   34 1
  54   33   34 1
  55   33   57 1
  56   33   58 1
  57   33   59 1
  58   34   60 1
  59   34   61 1
  60   35   36 1
  61   36   37 2
  62   36   38 2
  63   36   39 1
  64   39   40 1

#	End of record

