#	Name: ASD04590407
#	Creating user name:	WinNT
#	Creation time:	15. 06. 2019 20:50

#	Modifying user name:	WinNT
#	Modification time:	15. 06. 2019 20:50

#	Program:	/corina/corina34_cracker 3.40 0067  02.08.2006

@<TRIPOS>MOLECULE
ASD04590407
  36   39    0    0    0
SMALL
NO_CHARGES


@<TRIPOS>ATOM
   1 C1            -0.0167     1.3832     0.0096 C.ar    
   2 C2             0.0021    -0.0041     0.0020 C.ar    
   3 C3             2.4020     0.0223    -0.0208 C.ar    
   4 C4             2.3769     1.4283    -0.0130 C.ar    
   5 C5             1.1624     2.0986     0.0022 C.ar    
   6 N6             3.7040    -0.3552    -0.0353 N.2     
   7 C7             4.4709     0.7083    -0.0369 C.2     
   8 N8             3.6969     1.8375    -0.0234 N.pl3   
   9 C9             5.9482     0.6906    -0.0504 C.2     
  10 C10            6.7657    -0.4632    -0.0641 C.2     
  11 C11            8.0579    -0.0539    -0.0744 C.2     
  12 N12            8.0646     1.3050    -0.0676 N.pl3   
  13 N13            6.7361     1.7480    -0.0575 N.2     
  14 N14            6.3189    -1.7944    -0.0659 N.am    
  15 C15            7.2109    -2.8046    -0.0797 C.2     
  16 O16            8.4026    -2.5633    -0.0906 O.2     
  17 C17            6.7410    -4.2045    -0.0816 C.ar    
  18 C18            1.1969    -0.6870    -0.0131 C.ar    
  19 C19            7.2144    -6.5636    -0.0975 C.ar    
  20 C20            5.8586    -6.8315    -0.0851 C.ar    
  21 C21            4.9409    -5.7948    -0.0767 C.ar    
  22 C22            5.3729    -4.4857    -0.0749 C.ar    
  23 C23            7.6634    -5.2554    -0.0959 C.ar    
  24 F24            8.9888    -4.9937    -0.1085 F       
  25 H25           -0.9614     1.9066     0.0170 H       
  26 H26           -0.9283    -0.5525     0.0084 H       
  27 H27            1.1403     3.1784     0.0079 H       
  28 H28            4.0156     2.7537    -0.0212 H       
  29 H29            8.9277    -0.6941    -0.0855 H       
  30 H30            8.8529     1.8702    -0.0717 H       
  31 H31            5.3682    -1.9869    -0.0573 H       
  32 H32            1.2037    -1.7669    -0.0186 H       
  33 H33            7.9246    -7.3773    -0.1037 H       
  34 H34            5.5132    -7.8548    -0.0865 H       
  35 H35            3.8831    -6.0124    -0.0674 H       
  36 H36            4.6549    -3.6790    -0.0680 H       
@<TRIPOS>BOND
   1    1    2 ar
   2    1    5 ar
   3    1   25 1
   4    2   18 ar
   5    2   26 1
   6    3    4 ar
   7    3    6 1
   8    3   18 ar
   9    4    5 ar
  10    4    8 1
  11    5   27 1
  12    6    7 2
  13    7    8 1
  14    7    9 1
  15    8   28 1
  16    9   10 1
  17    9   13 2
  18   10   11 2
  19   10   14 1
  20   11   12 1
  21   11   29 1
  22   12   13 1
  23   12   30 1
  24   14   15 am
  25   14   31 1
  26   15   16 2
  27   15   17 1
  28   17   23 ar
  29   17   22 ar
  30   18   32 1
  31   19   20 ar
  32   19   23 ar
  33   19   33 1
  34   20   21 ar
  35   20   34 1
  36   21   22 ar
  37   21   35 1
  38   22   36 1
  39   23   24 1

#	End of record

