#	Name: ASD03080225
#	Creating user name:	WinNT
#	Creation time:	15. 06. 2019 20:26

#	Modifying user name:	WinNT
#	Modification time:	15. 06. 2019 20:26

#	Program:	/corina/corina34_cracker 3.40 0067  02.08.2006

@<TRIPOS>MOLECULE
ASD03080225
  60   59    0    0    0
SMALL
NO_CHARGES


@<TRIPOS>ATOM
   1 C1            -0.0167     1.3823     0.0096 C.ar    
   2 C2             0.0021    -0.0041     0.0020 C.ar    
   3 C3             1.2303    -0.6473    -0.0132 C.ar    
   4 C4             2.3867     0.1094    -0.0201 C.ar    
   5 N5             2.3308     1.4269    -0.0121 N.ar    
   6 C6             1.1808     2.0721     0.0019 C.ar    
   7 C7            -1.2819    -0.7930     0.0105 C.3     
   8 C8            -2.1063    -0.4388    -1.2287 C.3     
   9 C9            -0.9613    -2.2890    -0.0007 C.3     
  10 C10           -2.0815    -0.4522     1.2696 C.3     
  11 C11            3.5790     2.1939    -0.0194 C.3     
  12 C12            4.0000     2.4691    -1.4644 C.3     
  13 C13            5.3035     3.2701    -1.4720 C.3     
  14 C14            5.7245     3.5453    -2.9170 C.3     
  15 N15            6.9727     4.3123    -2.9243 N.ar    
  16 C16            6.9169     5.6297    -2.9108 C.ar    
  17 C17            8.1227     3.6671    -2.9388 C.ar    
  18 C18            9.3203     4.3569    -2.9456 C.ar    
  19 C19            9.3015     5.7432    -2.9371 C.ar    
  20 C20            8.0733     6.3864    -2.9171 C.ar    
  21 C21           10.5854     6.5322    -2.9441 C.3     
  22 C22           11.3860     6.1922    -4.2028 C.3     
  23 C23           10.2648     8.0282    -2.9321 C.3     
  24 C24           11.4090     6.1771    -1.7045 C.3     
  25 H25           -0.9554     1.9164     0.0170 H       
  26 H26            1.2826    -1.7260    -0.0191 H       
  27 H27            3.3473    -0.3840    -0.0320 H       
  28 H28            1.1748     3.1521     0.0074 H       
  29 H29           -1.5366    -0.6816    -2.1257 H       
  30 H30           -3.0350    -1.0095    -1.2225 H       
  31 H31           -2.3347     0.6269    -1.2207 H       
  32 H32           -0.3739    -2.5414     0.8822 H       
  33 H33           -1.8900    -2.8597     0.0055 H       
  34 H34           -0.3916    -2.5318    -0.8977 H       
  35 H35           -2.3099     0.6135     1.2776 H       
  36 H36           -3.0102    -1.0229     1.2758 H       
  37 H37           -1.4942    -0.7046     2.1525 H       
  38 H38            3.4275     3.1394     0.5013 H       
  39 H39            4.3592     1.6229     0.4839 H       
  40 H40            4.1515     1.5235    -1.9851 H       
  41 H41            3.2197     3.0401    -1.9677 H       
  42 H42            5.1520     4.2156    -0.9513 H       
  43 H43            6.0838     2.6991    -0.9687 H       
  44 H44            5.8760     2.5998    -3.4377 H       
  45 H45            4.9443     4.1163    -3.4203 H       
  46 H46            5.9563     6.1231    -2.8950 H       
  47 H47            8.1287     2.5871    -2.9450 H       
  48 H48           10.2589     3.8228    -2.9571 H       
  49 H49            8.0211     7.4651    -2.9067 H       
  50 H50           10.7993     6.4452    -5.0859 H       
  51 H51           12.3147     6.7629    -4.2079 H       
  52 H52           11.6144     5.1265    -4.2113 H       
  53 H53            9.6945     8.2703    -2.0354 H       
  54 H54           11.1935     8.5988    -2.9372 H       
  55 H55            9.6781     8.2811    -3.8152 H       
  56 H56           11.6373     5.1114    -1.7130 H       
  57 H57           12.3376     6.7478    -1.7096 H       
  58 H58           10.8386     6.4193    -0.8077 H       
  59 I59           17.3376    13.5988     7.1525 I       
  60 I60           22.3376    18.5988    12.1525 I       
@<TRIPOS>BOND
   1    1    2 ar
   2    1    6 ar
   3    1   25 1
   4    2    3 ar
   5    2    7 1
   6    3    4 ar
   7    3   26 1
   8    4    5 ar
   9    4   27 1
  10    5    6 ar
  11    5   11 1
  12    6   28 1
  13    7    8 1
  14    7    9 1
  15    7   10 1
  16    8   29 1
  17    8   30 1
  18    8   31 1
  19    9   32 1
  20    9   33 1
  21    9   34 1
  22   10   35 1
  23   10   36 1
  24   10   37 1
  25   11   12 1
  26   11   38 1
  27   11   39 1
  28   12   13 1
  29   12   40 1
  30   12   41 1
  31   13   14 1
  32   13   42 1
  33   13   43 1
  34   14   15 1
  35   14   44 1
  36   14   45 1
  37   15   17 ar
  38   15   16 ar
  39   16   20 ar
  40   16   46 1
  41   17   18 ar
  42   17   47 1
  43   18   19 ar
  44   18   48 1
  45   19   20 ar
  46   19   21 1
  47   20   49 1
  48   21   22 1
  49   21   23 1
  50   21   24 1
  51   22   50 1
  52   22   51 1
  53   22   52 1
  54   23   53 1
  55   23   54 1
  56   23   55 1
  57   24   56 1
  58   24   57 1
  59   24   58 1

#	End of record

