#	Name: ASD01870473
#	Creating user name:	WinNT
#	Creation time:	15. 06. 2019 19:39

#	Modifying user name:	WinNT
#	Modification time:	15. 06. 2019 19:39

#	Program:	/corina/corina34_cracker 3.40 0067  02.08.2006

@<TRIPOS>MOLECULE
ASD01870473
  40   43    0    0    0
SMALL
NO_CHARGES


@<TRIPOS>ATOM
   1 C1            -0.0298     1.3960    -0.2325 C.ar    
   2 C2            -0.0266     0.0156    -0.1054 C.ar    
   3 C3             1.1525    -0.6628     0.1397 C.ar    
   4 C4             2.3484     0.0277     0.2613 C.ar    
   5 C5             2.3606     1.4076     0.1362 C.ar    
   6 C6             1.1579     2.0995    -0.1132 C.ar    
   7 C7             3.4150     2.4412     0.2049 C.2     
   8 N8             2.8486     3.6452     0.0066 N.am    
   9 C9             1.5224     3.5300    -0.1876 C.2     
  10 O10            0.7534     4.4479    -0.3902 O.2     
  11 O11            4.5951     2.2376     0.4072 O.2     
  12 C12            3.5490     4.8613     0.0034 C.ar    
  13 C13            4.0786     5.3541    -1.1815 C.ar    
  14 C14            4.7672     6.5506    -1.1852 C.ar    
  15 C15            4.9305     7.2620    -0.0034 C.ar    
  16 C16            4.4011     6.7697     1.1821 C.ar    
  17 C17            3.7074     5.5749     1.1848 C.ar    
  18 Cl18           3.0390     4.9624     2.6653 Cl      
  19 N19            5.6294     8.4751    -0.0075 N.am    
  20 C20            6.4015     8.8116     1.0446 C.2     
  21 C21            7.2161    10.0364     0.9977 C.2     
  22 O22            6.4251     8.1029     2.0331 O.2     
  23 C23            8.0193    10.4424     2.0176 C.2     
  24 S24            8.8122    11.8983     1.6214 S.3     
  25 C25            8.0495    11.9717     0.0425 C.2     
  26 C26            7.2496    10.9276    -0.1384 C.2     
  27 C27            8.1852     9.7052     3.3215 C.3     
  28 H28           -0.9534     1.9204    -0.4280 H       
  29 H29           -0.9519    -0.5336    -0.1982 H       
  30 H30            1.1420    -1.7383     0.2374 H       
  31 H31            3.2666    -0.5076     0.4532 H       
  32 H32            3.9521     4.8012    -2.1005 H       
  33 H33            5.1793     6.9334    -2.1072 H       
  34 H34            4.5280     7.3227     2.1010 H       
  35 H35            5.5578     9.0735    -0.7676 H       
  36 H36            8.2121    12.7548    -0.6832 H       
  37 H37            6.6793    10.7635    -1.0408 H       
  38 H38            9.0055     8.9928     3.2342 H       
  39 H39            8.4059    10.4178     4.1162 H       
  40 H40            7.2643     9.1719     3.5571 H       
@<TRIPOS>BOND
   1    1    2 ar
   2    1    6 ar
   3    1   28 1
   4    2    3 ar
   5    2   29 1
   6    3    4 ar
   7    3   30 1
   8    4    5 ar
   9    4   31 1
  10    5    7 1
  11    5    6 ar
  12    6    9 1
  13    7    8 am
  14    7   11 2
  15    8    9 am
  16    8   12 1
  17    9   10 2
  18   12   13 ar
  19   12   17 ar
  20   13   14 ar
  21   13   32 1
  22   14   15 ar
  23   14   33 1
  24   15   16 ar
  25   15   19 1
  26   16   17 ar
  27   16   34 1
  28   17   18 1
  29   19   20 am
  30   19   35 1
  31   20   21 1
  32   20   22 2
  33   21   23 2
  34   21   26 1
  35   23   24 1
  36   23   27 1
  37   24   25 1
  38   25   26 2
  39   25   36 1
  40   26   37 1
  41   27   38 1
  42   27   39 1
  43   27   40 1

#	End of record

