#	Name: ASD01916349
#	Creating user name:	WinNT
#	Creation time:	15. 06. 2019 20:07

#	Modifying user name:	WinNT
#	Modification time:	15. 06. 2019 20:07

#	Program:	/corina/corina34_cracker 3.40 0067  02.08.2006

@<TRIPOS>MOLECULE
ASD01916349
  31   33    0    0    0
SMALL
NO_CHARGES


@<TRIPOS>ATOM
   1 C1             0.0920     1.3434     0.2760 C.3     
   2 C2             0.2942    -0.1706     0.4203 C.3     
   3 C3             0.8514    -0.7366    -0.8838 C.3     
   4 C4             2.1002    -0.0121    -1.2997 C.ar    
   5 C5             2.3838     1.2809    -0.8456 C.ar    
   6 C6             1.4577     1.9664     0.0665 C.2     
   7 N7             2.9607    -0.5972    -2.1148 N.ar    
   8 C8             4.0678     0.0265    -2.4964 C.ar    
   9 N9             4.3676     1.2532    -2.0872 N.ar    
  10 C10            3.5620     1.9083    -1.2715 C.ar    
  11 N11            4.9377    -0.6224    -3.3477 N.pl3   
  12 C12            6.1701    -0.0416    -3.6641 C.ar    
  13 O13            1.7743     2.9927     0.6303 O.2     
  14 C14            6.8176    -0.3821    -4.8459 C.ar    
  15 C15            8.0354     0.1940    -5.1551 C.ar    
  16 C16            8.6089     1.1076    -4.2902 C.ar    
  17 C17            7.9668     1.4482    -3.1136 C.ar    
  18 C18            6.7470     0.8808    -2.8010 C.ar    
  19 Cl19           6.0981    -1.5296    -5.9318 Cl      
  20 H20           -0.5458     1.5517    -0.5831 H       
  21 H21           -0.3629     1.7443     1.1818 H       
  22 H22            0.9957    -0.3678     1.2309 H       
  23 H23           -0.6614    -0.6451     0.6433 H       
  24 H24            1.0804    -1.7933    -0.7458 H       
  25 H25            0.1008    -0.6340    -1.6675 H       
  26 H26            3.8067     2.9062    -0.9387 H       
  27 H27            4.6948    -1.4816    -3.7268 H       
  28 H28            8.5396    -0.0701    -6.0729 H       
  29 H29            9.5606     1.5561    -4.5338 H       
  30 H30            8.4179     2.1620    -2.4402 H       
  31 H31            6.2463     1.1478    -1.8821 H       
@<TRIPOS>BOND
   1    1    2 1
   2    1    6 1
   3    1   20 1
   4    1   21 1
   5    2    3 1
   6    2   22 1
   7    2   23 1
   8    3    4 1
   9    3   24 1
  10    3   25 1
  11    4    5 ar
  12    4    7 ar
  13    5    6 1
  14    5   10 ar
  15    6   13 2
  16    7    8 ar
  17    8    9 ar
  18    8   11 1
  19    9   10 ar
  20   10   26 1
  21   11   12 1
  22   11   27 1
  23   12   14 ar
  24   12   18 ar
  25   14   15 ar
  26   14   19 1
  27   15   16 ar
  28   15   28 1
  29   16   17 ar
  30   16   29 1
  31   17   18 ar
  32   17   30 1
  33   18   31 1

#	End of record

