#	Name: ASD01410053
#	Creating user name:	WinNT
#	Creation time:	15. 06. 2019 19:16

#	Modifying user name:	WinNT
#	Modification time:	15. 06. 2019 19:16

#	Program:	/corina/corina34_cracker 3.40 0067  02.08.2006

@<TRIPOS>MOLECULE
ASD01410053
  39   40    0    0    0
SMALL
NO_CHARGES


@<TRIPOS>ATOM
   1 C1             0.4024     1.0909    -0.0897 C.ar    
   2 C2             0.1450    -0.2601    -0.0388 C.ar    
   3 C3            -1.1787    -0.7180    -0.0020 C.ar    
   4 C4            -2.2351     0.2111    -0.0176 C.ar    
   5 C5            -1.9538     1.5701    -0.0692 C.ar    
   6 C6            -0.6436     2.0053    -0.0992 C.ar    
   7 N7            -3.5507    -0.2280     0.0180 N.pl3   
   8 C8            -4.6441     0.7417     0.1194 C.3     
   9 C9            -5.9625     0.0119     0.1394 C.2     
  10 N10           -7.1150     0.7049     0.2285 N.am    
  11 C11           -8.3356     0.0421     0.1275 C.ar    
  12 C12           -8.4213    -1.1611    -0.5592 C.ar    
  13 C13           -9.6324    -1.8165    -0.6582 C.ar    
  14 C14          -10.7694    -1.2810    -0.0754 C.ar    
  15 C15          -10.7038    -0.0874     0.6105 C.ar    
  16 C16           -9.4843     0.5845     0.7246 C.ar    
  17 C17           -9.4068     1.8611     1.4570 C.2     
  18 O18          -10.4906     2.3340     2.1033 O.3     
  19 O19           -8.3656     2.4872     1.4782 O.2     
  20 O20           -5.9864    -1.1989     0.0753 O.2     
  21 C21           -1.4610    -2.1553     0.0519 C.2     
  22 Br22           2.1897     1.7064    -0.1393 Br      
  23 C23           -0.3334    -3.1492    -0.0566 C.3     
  24 O24           -2.6024    -2.5449     0.1839 O.2     
  25 Cl25          -0.3014     3.7060    -0.1631 Cl      
  26 H26            0.9620    -0.9663    -0.0275 H       
  27 H27           -2.7608     2.2878    -0.0814 H       
  28 H28           -3.7465    -1.1771    -0.0243 H       
  29 H29           -4.5342     1.3186     1.0376 H       
  30 H30           -4.6140     1.4141    -0.7380 H       
  31 H31           -7.0943     1.6653     0.3630 H       
  32 H32           -7.5396    -1.5849    -1.0170 H       
  33 H33           -9.6938    -2.7524    -1.1936 H       
  34 H34          -11.7120    -1.8014    -0.1593 H       
  35 H35          -11.5933     0.3259     1.0627 H       
  36 H36          -10.3913     3.1753     2.5697 H       
  37 H37            0.6109    -2.6166    -0.1691 H       
  38 H38           -0.3003    -3.7610     0.8450 H       
  39 H39           -0.4952    -3.7890    -0.9241 H       
@<TRIPOS>BOND
   1    1    2 ar
   2    1   22 1
   3    1    6 ar
   4    2    3 ar
   5    2   26 1
   6    3    4 ar
   7    3   21 1
   8    4    5 ar
   9    4    7 1
  10    5    6 ar
  11    5   27 1
  12    6   25 1
  13    7    8 1
  14    7   28 1
  15    8    9 1
  16    8   29 1
  17    8   30 1
  18    9   10 am
  19    9   20 2
  20   10   11 1
  21   10   31 1
  22   11   12 ar
  23   11   16 ar
  24   12   13 ar
  25   12   32 1
  26   13   14 ar
  27   13   33 1
  28   14   15 ar
  29   14   34 1
  30   15   16 ar
  31   15   35 1
  32   16   17 1
  33   17   18 1
  34   17   19 2
  35   18   36 1
  36   21   23 1
  37   21   24 2
  38   23   37 1
  39   23   38 1
  40   23   39 1

#	End of record

