#	Name: ASD01150141
#	Creating user name:	WinNT
#	Creation time:	15. 06. 2019 19:03

#	Modifying user name:	WinNT
#	Modification time:	15. 06. 2019 19:03

#	Program:	/corina/corina34_cracker 3.40 0067  02.08.2006

@<TRIPOS>MOLECULE
ASD01150141
  59   62    0    0    0
SMALL
NO_CHARGES


@<TRIPOS>ATOM
   1 N1             0.4029     1.7402     0.7633 N.pl3   
   2 C2             0.3966     0.3698     0.5967 C.2     
   3 C3            -0.9346     0.0028     0.4448 C.2     
   4 N4            -1.6641     1.1188     0.5211 N.2     
   5 C5            -0.8801     2.1486     0.7152 C.2     
   6 C6             1.3941    -0.6282     0.5566 C.2     
   7 N7             1.0317    -1.9147     0.3718 N.am    
   8 C8            -0.2603    -2.2558     0.2258 C.2     
   9 N9            -1.2422    -1.3352     0.2582 N.am    
  10 O10            2.5681    -0.3314     0.6869 O.2     
  11 C11           -2.6381    -1.7488     0.0949 C.3     
  12 O12           -0.5495    -3.4253     0.0607 O.2     
  13 C13            2.0619    -2.9555     0.3292 C.3     
  14 C14            2.3015    -3.4823     1.7207 C.ar    
  15 C15            1.5655    -4.5542     2.1899 C.ar    
  16 C16            1.7849    -5.0379     3.4660 C.ar    
  17 C17            2.7413    -4.4489     4.2737 C.ar    
  18 C18            3.4776    -3.3761     3.8036 C.ar    
  19 C19            3.2613    -2.8970     2.5253 C.ar    
  20 Cl20           3.0170    -5.0554     5.8768 Cl      
  21 C21           -1.3418     3.5764     0.8534 C.3     
  22 C22           -1.6191     3.8824     2.3266 C.3     
  23 C23            1.5807     2.5887     0.9611 C.3     
  24 C24           -3.2306    -2.0615     1.4449 C.2     
  25 C25           -3.8522    -1.1833     2.2342 C.2     
  26 C26           -4.3160    -1.7019     3.4315 C.2     
  27 C27           -4.0709    -3.0004     3.6140 C.2     
  28 S28           -3.2150    -3.6414     2.2175 S.3     
  29 Cl29          -4.0629     0.4826     1.7938 Cl      
  30 S30           -5.1649    -0.7208     4.6238 S.o2    
  31 C31           -6.7095    -0.2440     3.8006 C.3     
  32 O32           -5.4267    -1.6184     5.6939 O.2     
  33 O33           -4.3268     0.4121     4.8062 O.2     
  34 C34           -7.5014    -1.5009     3.4346 C.3     
  35 C35           -7.5421     0.6269     4.7436 C.3     
  36 H36           -3.2037    -0.9426    -0.3722 H       
  37 H37           -2.6826    -2.6367    -0.5358 H       
  38 H38            1.7297    -3.7694    -0.3152 H       
  39 H39            2.9872    -2.5349    -0.0644 H       
  40 H40            0.8187    -5.0137     1.5594 H       
  41 H41            1.2095    -5.8751     3.8326 H       
  42 H42            4.2244    -2.9159     4.4337 H       
  43 H43            3.8360    -2.0595     2.1581 H       
  44 H44           -0.5661     4.2466     0.4829 H       
  45 H45           -2.2539     3.7210     0.2743 H       
  46 H46           -2.3948     3.2123     2.6971 H       
  47 H47           -0.7071     3.7378     2.9057 H       
  48 H48           -1.9530     4.9152     2.4266 H       
  49 H49            1.9548     2.9224    -0.0068 H       
  50 H50            1.3073     3.4551     1.5633 H       
  51 H51            2.3562     2.0199     1.4740 H       
  52 H52           -4.3578    -3.5718     4.4844 H       
  53 H53           -6.4802     0.3175     2.8950 H       
  54 H54           -6.9514    -2.0719     2.6866 H       
  55 H55           -7.6446    -2.1123     4.3255 H       
  56 H56           -8.4724    -1.2139     3.0310 H       
  57 H57           -6.9780     1.5223     5.0043 H       
  58 H58           -8.4702     0.9134     4.2490 H       
  59 H59           -7.7714     0.0653     5.6492 H       
@<TRIPOS>BOND
   1    1    2 1
   2    1   23 1
   3    1    5 1
   4    2    3 2
   5    2    6 1
   6    3    4 1
   7    3    9 1
   8    4    5 2
   9    5   21 1
  10    6    7 am
  11    6   10 2
  12    7    8 am
  13    7   13 1
  14    8    9 am
  15    8   12 2
  16    9   11 1
  17   11   24 1
  18   11   36 1
  19   11   37 1
  20   13   14 1
  21   13   38 1
  22   13   39 1
  23   14   15 ar
  24   14   19 ar
  25   15   16 ar
  26   15   40 1
  27   16   17 ar
  28   16   41 1
  29   17   18 ar
  30   17   20 1
  31   18   19 ar
  32   18   42 1
  33   19   43 1
  34   21   22 1
  35   21   44 1
  36   21   45 1
  37   22   46 1
  38   22   47 1
  39   22   48 1
  40   23   49 1
  41   23   50 1
  42   23   51 1
  43   24   25 2
  44   24   28 1
  45   25   26 1
  46   25   29 1
  47   26   27 2
  48   26   30 1
  49   27   28 1
  50   27   52 1
  51   30   31 1
  52   30   32 2
  53   30   33 2
  54   31   34 1
  55   31   35 1
  56   31   53 1
  57   34   54 1
  58   34   55 1
  59   34   56 1
  60   35   57 1
  61   35   58 1
  62   35   59 1

#	End of record

