#	Name: ASD02039321
#	Creating user name:	WinNT
#	Creation time:	15. 06. 2019 20:18

#	Modifying user name:	WinNT
#	Modification time:	15. 06. 2019 20:18

#	Program:	/corina/corina34_cracker 3.40 0067  02.08.2006

@<TRIPOS>MOLECULE
ASD02039321
  47   49    0    0    0
SMALL
NO_CHARGES


@<TRIPOS>ATOM
   1 C1            -0.0477     0.7812    -0.4137 C.ar    
   2 C2             0.3416    -0.5503    -0.3886 C.ar    
   3 C3            -0.6043    -1.5375    -0.5951 C.ar    
   4 C4            -2.2813     0.0305    -0.8361 C.ar    
   5 C5            -1.3811     1.0756    -0.6412 C.ar    
   6 C6            -3.7132     0.3292    -1.0815 C.ar    
   7 C7             0.9573     1.8821    -0.1920 C.3     
   8 N8             1.5311     2.2858    -1.4781 N.am    
   9 C9             0.9005     3.3530    -2.2588 C.3     
  10 C10            2.6391     1.6753    -1.9429 C.2     
  11 C11            3.1596     2.0116    -3.2795 C.2     
  12 C12            4.1956     1.3967    -3.9196 C.2     
  13 C13            1.6074     4.6795    -1.9735 C.3     
  14 N14            2.6918     2.9859    -4.1011 N.2     
  15 C15            3.3970     2.9884    -5.1952 C.2     
  16 N16            4.3401     2.0139    -5.1159 N.pl3   
  17 O17            3.2093     0.8468    -1.2591 O.2     
  18 C18            5.3355     1.6894    -6.1407 C.3     
  19 C19           -4.6205    -0.7106    -1.2775 C.ar    
  20 C20           -4.1565     1.6503    -1.1111 C.ar    
  21 C21           -5.4893     1.9236    -1.3393 C.ar    
  22 C22           -6.3869     0.8870    -1.5388 C.ar    
  23 C23           -5.9515    -0.4281    -1.5050 C.ar    
  24 N24           -1.8663    -1.2297    -0.8150 N.ar    
  25 F25           -7.6913     1.1591    -1.7615 F       
  26 C26            0.9488     5.7941    -2.7889 C.3     
  27 F27           -0.3999     5.8983    -2.4322 F       
  28 F28            1.5953     7.0071    -2.5280 F       
  29 F29            1.0489     5.4961    -4.1521 F       
  30 H30            1.3738    -0.8132    -0.2098 H       
  31 H31           -0.3045    -2.5749    -0.5762 H       
  32 H32           -1.7202     2.1009    -0.6583 H       
  33 H33            0.4637     2.7370     0.2701 H       
  34 H34            1.7509     1.5230     0.4633 H       
  35 H35            0.9785     3.1208    -3.3209 H       
  36 H36           -0.1504     3.4342    -1.9809 H       
  37 H37            4.7874     0.5752    -3.5438 H       
  38 H38            1.5294     4.9117    -0.9114 H       
  39 H39            2.6583     4.5983    -2.2515 H       
  40 H40            3.2535     3.6556    -6.0323 H       
  41 H41            6.2372     2.2777    -5.9705 H       
  42 H42            5.5786     0.6282    -6.0879 H       
  43 H43            4.9312     1.9210    -7.1261 H       
  44 H44           -4.2820    -1.7358    -1.2517 H       
  45 H45           -3.4576     2.4589    -0.9553 H       
  46 H46           -5.8337     2.9470    -1.3620 H       
  47 H47           -6.6545    -1.2329    -1.6614 H       
@<TRIPOS>BOND
   1    1    2 ar
   2    1    7 1
   3    1    5 ar
   4    2    3 ar
   5    2   30 1
   6    3   24 ar
   7    3   31 1
   8    4    5 ar
   9    4    6 1
  10    4   24 ar
  11    5   32 1
  12    6   19 ar
  13    6   20 ar
  14    7    8 1
  15    7   33 1
  16    7   34 1
  17    8    9 1
  18    8   10 am
  19    9   13 1
  20    9   35 1
  21    9   36 1
  22   10   11 1
  23   10   17 2
  24   11   12 2
  25   11   14 1
  26   12   16 1
  27   12   37 1
  28   13   26 1
  29   13   38 1
  30   13   39 1
  31   14   15 2
  32   15   16 1
  33   15   40 1
  34   16   18 1
  35   18   41 1
  36   18   42 1
  37   18   43 1
  38   19   23 ar
  39   19   44 1
  40   20   21 ar
  41   20   45 1
  42   21   22 ar
  43   21   46 1
  44   22   23 ar
  45   22   25 1
  46   23   47 1
  47   26   27 1
  48   26   28 1
  49   26   29 1

#	End of record

