#	Name: ASD03090602
#	Creating user name:	WinNT
#	Creation time:	15. 06. 2019 20:29

#	Modifying user name:	WinNT
#	Modification time:	15. 06. 2019 20:29

#	Program:	/corina/corina34_cracker 3.40 0067  02.08.2006

@<TRIPOS>MOLECULE
ASD03090602
  37   38    0    0    0
SMALL
NO_CHARGES


@<TRIPOS>ATOM
   1 N1            -0.0191     1.3492     0.0252 N.am    
   2 C2             0.0736     0.0046     0.0329 C.2     
   3 O3             1.1643    -0.5298    -0.0215 O.2     
   4 N4            -1.0428    -0.7474     0.1009 N.am    
   5 C5            -1.8011    -4.3290     0.4206 C.ar    
   6 C6            -1.9217    -2.9616     0.5586 C.ar    
   7 C7            -0.9572    -2.1352    -0.0154 C.ar    
   8 C8             0.0951    -2.7312    -0.7091 C.ar    
   9 C9             0.1433    -4.1064    -0.8016 C.ar    
  10 N10           -0.7898    -4.8551    -0.2440 N.ar    
  11 C11           -2.8341    -5.2334     1.0419 C.3     
  12 F12           -3.8646    -5.4639     0.1242 F       
  13 F13           -2.2390    -6.4507     1.3903 F       
  14 F14           -3.3575    -4.6253     2.1879 F       
  15 C15            1.1424     2.1319     0.0703 C.ar    
  16 C16            1.1897     3.3442    -0.6052 C.ar    
  17 C17            2.3343     4.1152    -0.5600 C.ar    
  18 C18            3.4370     3.6788     0.1601 C.ar    
  19 C19            3.3906     2.4678     0.8346 C.ar    
  20 C20            2.2442     1.6983     0.7949 C.ar    
  21 C21           -0.0078     3.8182    -1.3878 C.3     
  22 O22            4.5639     4.4385     0.2042 O.3     
  23 C23            5.6610     3.9281     0.9643 C.3     
  24 H24           -0.8897     1.7751    -0.0155 H       
  25 H25           -1.9057    -0.3239     0.2307 H       
  26 H26           -2.7521    -2.5374     1.1036 H       
  27 H27            0.8617    -2.1244    -1.1680 H       
  28 H28            0.9546    -4.5767    -1.3374 H       
  29 H29            2.3713     5.0579    -1.0856 H       
  30 H30            4.2495     2.1283     1.3943 H       
  31 H31            2.2067     0.7575     1.3238 H       
  32 H32           -0.6530     4.4121    -0.7404 H       
  33 H33            0.3252     4.4282    -2.2275 H       
  34 H34           -0.5616     2.9570    -1.7614 H       
  35 H35            5.3547     3.7981     2.0022 H       
  36 H36            5.9715     2.9672     0.5540 H       
  37 H37            6.4938     4.6297     0.9164 H       
@<TRIPOS>BOND
   1    1    2 am
   2    1   15 1
   3    1   24 1
   4    2    3 2
   5    2    4 am
   6    4    7 1
   7    4   25 1
   8    5    6 ar
   9    5   10 ar
  10    5   11 1
  11    6    7 ar
  12    6   26 1
  13    7    8 ar
  14    8    9 ar
  15    8   27 1
  16    9   10 ar
  17    9   28 1
  18   11   12 1
  19   11   13 1
  20   11   14 1
  21   15   16 ar
  22   15   20 ar
  23   16   17 ar
  24   16   21 1
  25   17   18 ar
  26   17   29 1
  27   18   19 ar
  28   18   22 1
  29   19   20 ar
  30   19   30 1
  31   20   31 1
  32   21   32 1
  33   21   33 1
  34   21   34 1
  35   22   23 1
  36   23   35 1
  37   23   36 1
  38   23   37 1

#	End of record

