#	Name: ASD04910234
#	Creating user name:	WinNT
#	Creation time:	15. 06. 2019 20:55

#	Modifying user name:	WinNT
#	Modification time:	15. 06. 2019 20:55

#	Program:	/corina/corina34_cracker 3.40 0067  02.08.2006

@<TRIPOS>MOLECULE
ASD04910234
  73   75    0    0    0
SMALL
NO_CHARGES


@<TRIPOS>ATOM
   1 C1             0.2346     2.1515    -2.0822 C.2     
   2 C2             0.1714     0.6707    -1.8095 C.3     
   3 C3             1.5876     0.1290    -1.6049 C.3     
   4 O4             1.3027     2.7157    -2.1099 O.2     
   5 O5            -0.8954     2.8427    -2.2996 O.3     
   6 C6             2.6611    -2.0056    -1.1270 C.2     
   7 C7             2.5993    -3.4553    -0.8601 C.ar    
   8 C8             3.7749    -4.1888    -0.6371 C.ar    
   9 C9             3.6704    -5.5314    -0.3934 C.ar    
  10 C10            2.4102    -6.1269    -0.3738 C.ar    
  11 N11            1.3148    -5.4109    -0.5881 N.ar    
  12 C12            1.3706    -4.1159    -0.8200 C.ar    
  13 O13            3.7360    -1.4378    -1.1550 O.2     
  14 N14            1.5262    -1.3105    -1.3398 N.am    
  15 N15            2.3006    -7.4849    -0.1275 N.pl3   
  16 C16            3.5072    -8.3067    -0.0040 C.3     
  17 C17            3.9933    -8.2841     1.4465 C.3     
  18 C18            5.3363    -9.0104     1.5456 C.3     
  19 C19            6.3977    -8.2280     0.7697 C.3     
  20 C20            5.7521    -9.1154     3.0143 C.3     
  21 C21            3.1927    -9.7245    -0.4065 C.ar    
  22 C22            4.1055   -10.4491    -1.1507 C.ar    
  23 C23            3.8201   -11.7488    -1.5210 C.ar    
  24 C24            2.6155   -12.3277    -1.1449 C.ar    
  25 C25            1.7012   -11.5977    -0.3973 C.ar    
  26 C26            1.9943   -10.3001    -0.0259 C.ar    
  27 N27            2.3227   -13.6464    -1.5196 N.pl3   
  28 N28            2.3436   -14.1568    -2.8240 N.2     
  29 C29            2.0156   -15.4227    -2.7734 C.2     
  30 C30            1.7753   -15.7598    -1.4368 C.2     
  31 C31            1.9759   -14.6525    -0.6853 C.2     
  32 C32            1.3704   -17.1178    -0.9240 C.3     
  33 F33            1.2680   -18.0099    -1.9969 F       
  34 F34            2.3338   -17.5819    -0.0220 F       
  35 F35            0.1336   -17.0223    -0.2772 F       
  36 C36            0.3925   -12.2223     0.0129 C.3     
  37 C37            4.8150   -12.5375    -2.3329 C.3     
  38 C38           -0.7589     4.2654    -2.5557 C.3     
  39 C39           -2.1429     4.8786    -2.7783 C.3     
  40 H40           -0.4195     0.4915    -0.9113 H       
  41 H41           -0.2923     0.1648    -2.6564 H       
  42 H42            2.1785     0.3082    -2.5031 H       
  43 H43            2.0513     0.6349    -0.7580 H       
  44 H44            4.7401    -3.7047    -0.6577 H       
  45 H45            4.5561    -6.1241    -0.2182 H       
  46 H46            0.4586    -3.5614    -0.9853 H       
  47 H47            0.6687    -1.7634    -1.3175 H       
  48 H48            1.4250    -7.8923    -0.0368 H       
  49 H49            4.2860    -7.9086    -0.6545 H       
  50 H50            4.1138    -7.2513     1.7733 H       
  51 H51            3.2624    -8.7835     2.0825 H       
  52 H52            5.2406   -10.0105     1.1227 H       
  53 H53            6.5067    -7.2343     1.2044 H       
  54 H54            7.3502    -8.7551     0.8247 H       
  55 H55            6.0924    -8.1371    -0.2727 H       
  56 H56            4.9959    -9.6728     3.5671 H       
  57 H57            6.7089    -9.6328     3.0849 H       
  58 H58            5.8478    -8.1153     3.4372 H       
  59 H59            5.0423    -9.9983    -1.4429 H       
  60 H60            1.2851    -9.7330     0.5588 H       
  61 H61            1.9424   -16.0919    -3.6179 H       
  62 H62            1.8749   -14.5840     0.3878 H       
  63 H63            0.5117   -12.7148     0.9780 H       
  64 H64           -0.3707   -11.4481     0.0918 H       
  65 H65            0.0900   -12.9559    -0.7344 H       
  66 H66            5.4927   -13.0665    -1.6629 H       
  67 H67            4.2854   -13.2575    -2.9567 H       
  68 H68            5.3864   -11.8589    -2.9663 H       
  69 H69           -0.2826     4.7445    -1.7003 H       
  70 H70           -0.1469     4.4175    -3.4447 H       
  71 H71           -2.7549     4.7265    -1.8892 H       
  72 H72           -2.0404     5.9466    -2.9705 H       
  73 H73           -2.6192     4.3995    -3.6336 H       
@<TRIPOS>BOND
   1    1    2 1
   2    1    4 2
   3    1    5 1
   4    2    3 1
   5    2   40 1
   6    2   41 1
   7    3   14 1
   8    3   42 1
   9    3   43 1
  10    5   38 1
  11    6    7 1
  12    6   13 2
  13    6   14 am
  14    7    8 ar
  15    7   12 ar
  16    8    9 ar
  17    8   44 1
  18    9   10 ar
  19    9   45 1
  20   10   11 ar
  21   10   15 1
  22   11   12 ar
  23   12   46 1
  24   14   47 1
  25   15   16 1
  26   15   48 1
  27   16   17 1
  28   16   21 1
  29   16   49 1
  30   17   18 1
  31   17   50 1
  32   17   51 1
  33   18   19 1
  34   18   20 1
  35   18   52 1
  36   19   53 1
  37   19   54 1
  38   19   55 1
  39   20   56 1
  40   20   57 1
  41   20   58 1
  42   21   22 ar
  43   21   26 ar
  44   22   23 ar
  45   22   59 1
  46   23   24 ar
  47   23   37 1
  48   24   25 ar
  49   24   27 1
  50   25   26 ar
  51   25   36 1
  52   26   60 1
  53   27   28 1
  54   27   31 1
  55   28   29 2
  56   29   30 1
  57   29   61 1
  58   30   31 2
  59   30   32 1
  60   31   62 1
  61   32   33 1
  62   32   34 1
  63   32   35 1
  64   36   63 1
  65   36   64 1
  66   36   65 1
  67   37   66 1
  68   37   67 1
  69   37   68 1
  70   38   39 1
  71   38   69 1
  72   38   70 1
  73   39   71 1
  74   39   72 1
  75   39   73 1

#	End of record

