#	Name: ASD03430592
#	Creating user name:	WinNT
#	Creation time:	15. 06. 2019 20:41

#	Modifying user name:	WinNT
#	Modification time:	15. 06. 2019 20:41

#	Program:	/corina/corina34_cracker 3.40 0067  02.08.2006

@<TRIPOS>MOLECULE
ASD03430592
  57   62    0    0    0
SMALL
NO_CHARGES


@<TRIPOS>ATOM
   1 N1            -0.0157     1.4932     0.4901 N.am    
   2 C2             0.0409     0.2263     0.9344 C.2     
   3 C3             1.4805    -0.0488     1.3138 C.3     
   4 C4             2.1944     1.2486     1.0119 C.ar    
   5 C5             3.5068     1.6459     1.1356 C.ar    
   6 C6             3.8770     2.9283     0.7699 C.ar    
   7 C7             2.9262     3.8059     0.2814 C.ar    
   8 C8             1.6107     3.4103     0.1565 C.ar    
   9 C9             1.2302     2.1206     0.5227 C.ar    
  10 O10           -0.8869    -0.5506     1.0164 O.2     
  11 O11            1.8726    -1.2716     6.8088 O.3     
  12 C12            2.0673    -2.6449     7.1638 C.3     
  13 C13            3.1685    -3.2221     6.2641 C.3     
  14 O14            2.7427    -3.1026     4.9024 O.3     
  15 C15            2.2172    -1.9023     4.5282 C.ar    
  16 C16            1.7812    -0.9896     5.4803 C.ar    
  17 C17            2.1200    -1.5937     3.1780 C.ar    
  18 C18            1.5858    -0.3807     2.7801 C.ar    
  19 C19            1.1480     0.5297     3.7299 C.ar    
  20 C20            1.2459     0.2254     5.0789 C.ar    
  21 O21            0.6228     1.7212     3.3382 O.3     
  22 F22            2.5454    -2.4799     2.2512 F       
  23 C23           -1.2434     2.1395     0.0197 C.3     
  24 C24           -0.9991     2.7578    -1.3327 C.ar    
  25 C25           -1.5150     4.0065    -1.6251 C.ar    
  26 C26           -1.2910     4.5737    -2.8657 C.ar    
  27 C27           -0.5506     3.8925    -3.8136 C.ar    
  28 C28           -0.0339     2.6442    -3.5208 C.ar    
  29 C29           -0.2543     2.0789    -2.2788 C.ar    
  30 C30           -2.3417     1.1133    -0.0882 C.ar    
  31 C31           -3.4804     1.2356     0.6859 C.ar    
  32 C32           -4.4879     0.2942     0.5870 C.ar    
  33 C33           -4.3568    -0.7692    -0.2864 C.ar    
  34 C34           -3.2185    -0.8911    -1.0611 C.ar    
  35 C35           -2.2129     0.0527    -0.9654 C.ar    
  36 H36            1.8871    -0.8585     0.7078 H       
  37 H37            4.2463     0.9579     1.5178 H       
  38 H38            4.9056     3.2431     0.8661 H       
  39 H39            3.2153     4.8067    -0.0035 H       
  40 H40            0.8740     4.1014    -0.2257 H       
  41 H41            2.3713    -2.7151     8.2081 H       
  42 H42            1.1408    -3.1986     7.0120 H       
  43 H43            4.0932    -2.6637     6.4105 H       
  44 H44            3.3299    -4.2721     6.5081 H       
  45 H45            0.9046     0.9350     5.8181 H       
  46 H46           -0.3343     1.7032     3.2012 H       
  47 H47           -1.5391     2.9153     0.7259 H       
  48 H48           -2.0935     4.5388    -0.8845 H       
  49 H49           -1.6947     5.5490    -3.0944 H       
  50 H50           -0.3761     4.3353    -4.7831 H       
  51 H51            0.5443     2.1118    -4.2616 H       
  52 H52            0.1525     1.1052    -2.0488 H       
  53 H53           -3.5828     2.0665     1.3683 H       
  54 H54           -5.3772     0.3894     1.1923 H       
  55 H55           -5.1436    -1.5051    -0.3631 H       
  56 H56           -3.1159    -1.7221    -1.7432 H       
  57 H57           -1.3252    -0.0405    -1.5734 H       
@<TRIPOS>BOND
   1    1    2 am
   2    1    9 1
   3    1   23 1
   4    2    3 1
   5    2   10 2
   6    3    4 1
   7    3   18 1
   8    3   36 1
   9    4    5 ar
  10    4    9 ar
  11    5    6 ar
  12    5   37 1
  13    6    7 ar
  14    6   38 1
  15    7    8 ar
  16    7   39 1
  17    8    9 ar
  18    8   40 1
  19   11   12 1
  20   11   16 1
  21   12   13 1
  22   12   41 1
  23   12   42 1
  24   13   14 1
  25   13   43 1
  26   13   44 1
  27   14   15 1
  28   15   16 ar
  29   15   17 ar
  30   16   20 ar
  31   17   18 ar
  32   17   22 1
  33   18   19 ar
  34   19   20 ar
  35   19   21 1
  36   20   45 1
  37   21   46 1
  38   23   24 1
  39   23   30 1
  40   23   47 1
  41   24   25 ar
  42   24   29 ar
  43   25   26 ar
  44   25   48 1
  45   26   27 ar
  46   26   49 1
  47   27   28 ar
  48   27   50 1
  49   28   29 ar
  50   28   51 1
  51   29   52 1
  52   30   31 ar
  53   30   35 ar
  54   31   32 ar
  55   31   53 1
  56   32   33 ar
  57   32   54 1
  58   33   34 ar
  59   33   55 1
  60   34   35 ar
  61   34   56 1
  62   35   57 1

#	End of record

