#	Name: ASD09740028
#	Creating user name:	WinNT
#	Creation time:	15. 06. 2019 21:22

#	Modifying user name:	WinNT
#	Modification time:	15. 06. 2019 21:22

#	Program:	/corina/corina34_cracker 3.40 0067  02.08.2006

@<TRIPOS>MOLECULE
ASD09740028
  63   66    0    0    0
SMALL
NO_CHARGES


@<TRIPOS>ATOM
   1 N1             1.8107     1.6848     1.7997 N.2     
   2 O2             2.1774     0.5590     2.0620 O.3     
   3 C3             2.8421     2.4628     1.5925 C.2     
   4 N4             3.9517     1.7115     1.7500 N.2     
   5 C5             3.5184     0.5004     2.0489 C.2     
   6 C6             4.3499    -0.6902     2.3178 C.ar    
   7 C7             2.7993     3.9060     1.2476 C.ar    
   8 C8             5.7424    -0.5970     2.2678 C.ar    
   9 C9             3.7453    -1.9104     2.6283 C.ar    
  10 C10            4.5276    -3.0215     2.8796 C.ar    
  11 C11            5.9165    -2.9229     2.8228 C.ar    
  12 C12            6.5171    -1.7091     2.5195 C.ar    
  13 C13            3.9841     4.6112     1.0541 C.ar    
  14 C14            3.9392     5.9528     0.7338 C.ar    
  15 C15            2.7213     6.5938     0.6060 C.ar    
  16 C16            1.5379     5.8987     0.7969 C.ar    
  17 C17            1.5718     4.5550     1.1115 C.ar    
  18 C18            0.1012     6.3688     0.7144 C.3     
  19 C19           -0.7210     5.2848     1.4434 C.3     
  20 C20            0.1613     4.0289     1.2681 C.3     
  21 N21           -0.0508     7.6643     1.3902 N.3     
  22 C22           -0.8504     8.5911     0.5780 C.3     
  23 C23           -1.0358     9.9058     1.3383 C.3     
  24 O24           -1.8136    10.8074     0.5483 O.3     
  25 C25           -0.1291     8.8636    -0.7435 C.3     
  26 C26           -2.2190     7.9692     0.2932 C.3     
  27 O27            6.6844    -4.0161     3.0701 O.3     
  28 C28            8.7929    -5.1741     3.3015 C.3     
  29 C29            8.1010    -3.8444     2.9950 C.3     
  30 O30            3.9421    -4.2110     3.1826 O.3     
  31 C31            2.0419    -5.6509     3.5779 C.3     
  32 C32            2.5140    -4.2393     3.2237 C.3     
  33 H33            6.2123     0.3463     2.0316 H       
  34 H34            2.6688    -1.9853     2.6722 H       
  35 H35            7.5938    -1.6367     2.4761 H       
  36 H36            4.9355     4.1100     1.1548 H       
  37 H37            4.8565     6.5025     0.5832 H       
  38 H38            2.6918     7.6441     0.3560 H       
  39 H39           -0.2126     6.4453    -0.3266 H       
  40 H40           -0.8414     5.5334     2.4978 H       
  41 H41           -1.6899     5.1455     0.9639 H       
  42 H42           -0.1383     3.4775     0.3769 H       
  43 H43            0.0914     3.3916     2.1496 H       
  44 H44           -0.4534     7.5483     2.3081 H       
  45 H45           -1.5497     9.7116     2.2798 H       
  46 H46           -0.0608    10.3488     1.5412 H       
  47 H47           -1.9713    11.6636     0.9691 H       
  48 H48           -0.0868     7.9460    -1.3303 H       
  49 H49           -0.6702     9.6274    -1.3020 H       
  50 H50            0.8836     9.2115    -0.5397 H       
  51 H51           -2.6825     7.6656     1.2319 H       
  52 H52           -2.8541     8.7013    -0.2055 H       
  53 H53           -2.0954     7.0976    -0.3496 H       
  54 H54            8.5195    -5.5034     4.3039 H       
  55 H55            8.4787    -5.9232     2.5747 H       
  56 H56            9.8735    -5.0431     3.2442 H       
  57 H57            8.3744    -3.5151     1.9925 H       
  58 H58            8.4152    -3.0953     3.7218 H       
  59 H59            2.3977    -6.3530     2.8239 H       
  60 H60            2.4391    -5.9328     4.5531 H       
  61 H61            0.9526    -5.6725     3.6093 H       
  62 H62            2.1582    -3.5372     3.9777 H       
  63 H63            2.1168    -3.9574     2.2485 H       
@<TRIPOS>BOND
   1    1    2 1
   2    1    3 2
   3    2    5 1
   4    3    4 1
   5    3    7 1
   6    4    5 2
   7    5    6 1
   8    6    8 ar
   9    6    9 ar
  10    7   13 ar
  11    7   17 ar
  12    8   12 ar
  13    8   33 1
  14    9   10 ar
  15    9   34 1
  16   10   11 ar
  17   10   30 1
  18   11   12 ar
  19   11   27 1
  20   12   35 1
  21   13   14 ar
  22   13   36 1
  23   14   15 ar
  24   14   37 1
  25   15   16 ar
  26   15   38 1
  27   16   17 ar
  28   16   18 1
  29   17   20 1
  30   18   19 1
  31   18   21 1
  32   18   39 1
  33   19   20 1
  34   19   40 1
  35   19   41 1
  36   20   42 1
  37   20   43 1
  38   21   22 1
  39   21   44 1
  40   22   23 1
  41   22   25 1
  42   22   26 1
  43   23   24 1
  44   23   45 1
  45   23   46 1
  46   24   47 1
  47   25   48 1
  48   25   49 1
  49   25   50 1
  50   26   51 1
  51   26   52 1
  52   26   53 1
  53   27   29 1
  54   28   29 1
  55   28   54 1
  56   28   55 1
  57   28   56 1
  58   29   57 1
  59   29   58 1
  60   30   32 1
  61   31   32 1
  62   31   59 1
  63   31   60 1
  64   31   61 1
  65   32   62 1
  66   32   63 1

#	End of record

