#	Name: ASD01208997
#	Creating user name:	WinNT
#	Creation time:	15. 06. 2019 19:10

#	Modifying user name:	WinNT
#	Modification time:	15. 06. 2019 19:10

#	Program:	/corina/corina34_cracker 3.40 0067  02.08.2006

@<TRIPOS>MOLECULE
ASD01208997
  57   61    0    0    0
SMALL
NO_CHARGES


@<TRIPOS>ATOM
   1 C1            -2.1288     1.4340    -0.8780 C.3     
   2 C2            -2.0579    -0.0786    -1.1090 C.3     
   3 C3            -1.6849    -0.7792     0.1991 C.3     
   4 C4            -1.4347    -2.2642    -0.0711 C.3     
   5 C5            -0.8794    -2.9140     1.1701 C.2     
   6 N6             0.3540    -2.5900     1.6062 N.am    
   7 C7             0.9002    -3.2499     2.7059 C.ar    
   8 N8            -2.6956    -2.9128    -0.4395 N.pl3   
   9 C9            -2.8767    -3.7480    -1.5108 C.ar    
  10 C10           -4.2287    -4.1427    -1.4930 C.ar    
  11 C11           -4.8329    -3.4841    -0.3394 C.2     
  12 N12           -3.9061    -2.7835     0.2493 N.2     
  13 O13           -1.5425    -3.7285     1.7766 O.2     
  14 C14           -3.4264    -0.5761    -1.5845 C.3     
  15 C15           -3.8264     0.1868    -2.8501 C.3     
  16 O16           -3.8431     1.5889    -2.5743 O.3     
  17 C17           -2.5789     2.1192    -2.1709 C.3     
  18 C18           -2.0378    -4.2259    -2.5142 C.ar    
  19 C19           -2.5314    -5.0697    -3.4687 C.ar    
  20 C20           -3.8645    -5.4601    -3.4529 C.ar    
  21 C21           -4.7099    -5.0086    -2.4810 C.ar    
  22 S22           -6.3987    -5.5111    -2.4723 S.o2    
  23 C23           -6.5736    -6.4843    -0.9514 C.3     
  24 O24           -7.1259    -4.2944    -2.3721 O.2     
  25 O25           -6.5217    -6.3461    -3.6155 O.2     
  26 C26           -7.9174    -7.1727    -0.7038 C.3     
  27 C27           -6.6930    -8.0029    -1.0943 C.3     
  28 C28            0.0700    -3.9160     3.6029 C.ar    
  29 N29            0.5909    -4.5396     4.6430 N.ar    
  30 C30            1.8993    -4.5320     4.8331 C.ar    
  31 C31            2.7267    -3.8714     3.9441 C.ar    
  32 N32            2.2127    -3.2493     2.8972 N.ar    
  33 H33           -2.8443     1.6481    -0.0841 H       
  34 H34           -1.1445     1.8054    -0.5926 H       
  35 H35           -1.3056    -0.2969    -1.8669 H       
  36 H36           -0.7815    -0.3271     0.6085 H       
  37 H37           -2.5008    -0.6724     0.9139 H       
  38 H38           -0.7199    -2.3696    -0.8872 H       
  39 H39            0.8616    -1.8976     1.1548 H       
  40 H40           -5.8634    -3.5666    -0.0269 H       
  41 H41           -3.3702    -1.6422    -1.8043 H       
  42 H42           -4.1681    -0.4025    -0.8049 H       
  43 H43           -3.1061    -0.0194    -3.6418 H       
  44 H44           -4.8186    -0.1328    -3.1689 H       
  45 H45           -2.6724     3.1917    -2.0004 H       
  46 H46           -1.8423     1.9383    -2.9537 H       
  47 H47           -0.9995    -3.9298    -2.5382 H       
  48 H48           -1.8771    -5.4375    -4.2453 H       
  49 H49           -4.2354    -6.1279    -4.2164 H       
  50 H50           -6.0371    -6.1007    -0.0836 H       
  51 H51           -8.2648    -7.2423     0.3270 H       
  52 H52           -8.6963    -7.0408    -1.4548 H       
  53 H53           -6.6664    -8.4173    -2.1021 H       
  54 H54           -6.2349    -8.6187    -0.3203 H       
  55 H55           -0.9988    -3.9222     3.4482 H       
  56 H56            2.3227    -5.0429     5.6853 H       
  57 H57            3.7950    -3.8674     4.1027 H       
@<TRIPOS>BOND
   1    1    2 1
   2    1   17 1
   3    1   33 1
   4    1   34 1
   5    2    3 1
   6    2   14 1
   7    2   35 1
   8    3    4 1
   9    3   36 1
  10    3   37 1
  11    4    5 1
  12    4    8 1
  13    4   38 1
  14    5    6 am
  15    5   13 2
  16    6    7 1
  17    6   39 1
  18    7   28 ar
  19    7   32 ar
  20    8    9 1
  21    8   12 1
  22    9   10 ar
  23    9   18 ar
  24   10   11 1
  25   10   21 ar
  26   11   12 2
  27   11   40 1
  28   14   15 1
  29   14   41 1
  30   14   42 1
  31   15   16 1
  32   15   43 1
  33   15   44 1
  34   16   17 1
  35   17   45 1
  36   17   46 1
  37   18   19 ar
  38   18   47 1
  39   19   20 ar
  40   19   48 1
  41   20   21 ar
  42   20   49 1
  43   21   22 1
  44   22   23 1
  45   22   24 2
  46   22   25 2
  47   23   26 1
  48   23   27 1
  49   23   50 1
  50   26   27 1
  51   26   51 1
  52   26   52 1
  53   27   53 1
  54   27   54 1
  55   28   29 ar
  56   28   55 1
  57   29   30 ar
  58   30   31 ar
  59   30   56 1
  60   31   32 ar
  61   31   57 1

#	End of record

