#	Name: ASD01180182
#	Creating user name:	WinNT
#	Creation time:	15. 06. 2019 19:06

#	Modifying user name:	WinNT
#	Modification time:	15. 06. 2019 19:06

#	Program:	/corina/corina34_cracker 3.40 0067  02.08.2006

@<TRIPOS>MOLECULE
ASD01180182
  58   60    0    0    0
SMALL
NO_CHARGES


@<TRIPOS>ATOM
   1 C1            -1.9957    -2.3179    -6.8640 C.2     
   2 C2            -1.5167    -3.0047    -5.6110 C.3     
   3 C3            -0.4349    -4.0251    -5.9704 C.3     
   4 O4            -1.5204    -2.6142    -7.9346 O.2     
   5 O5            -2.9541    -1.3810    -6.7912 O.3     
   6 C6             0.9891    -5.6375    -4.8260 C.2     
   7 C7             1.4580    -6.3099    -3.5993 C.ar    
   8 C8             2.4555    -7.2951    -3.6645 C.ar    
   9 C9             2.8600    -7.8926    -2.5016 C.ar    
  10 C10            2.2746    -7.5089    -1.2961 C.ar    
  11 N11            1.3334    -6.5754    -1.2622 N.ar    
  12 C12            0.9201    -5.9714    -2.3569 C.ar    
  13 O13            1.4674    -5.9357    -5.9035 O.2     
  14 N14            0.0307    -4.6928    -4.7524 N.am    
  15 N15            2.6813    -8.1113    -0.1176 N.pl3   
  16 C16            3.8035    -9.0529    -0.1255 C.3     
  17 C17            4.4266    -9.1156     1.2705 C.3     
  18 C18            5.0452    -7.7591     1.6143 C.3     
  19 C19            2.3982   -12.9353    -1.2352 C.ar    
  20 C20            3.6184   -12.4685    -1.7196 C.ar    
  21 C21            4.0674   -11.2146    -1.3579 C.ar    
  22 C22            3.3083   -10.4214    -0.5165 C.ar    
  23 C23            2.0964   -10.8800    -0.0324 C.ar    
  24 C24            1.6378   -12.1323    -0.3876 C.ar    
  25 C25            1.9074   -14.2802    -1.6255 C.ar    
  26 C26            0.6872   -14.7470    -1.1411 C.ar    
  27 C27            0.2355   -15.9987    -1.5073 C.ar    
  28 C28            0.9920   -16.7896    -2.3532 C.ar    
  29 C29            2.2043   -16.3314    -2.8367 C.ar    
  30 C30            2.6624   -15.0786    -2.4822 C.ar    
  31 C31            0.4938   -18.1556    -2.7491 C.3     
  32 F32           -0.2751   -18.0522    -3.9133 F       
  33 F33            1.5845   -18.9997    -2.9840 F       
  34 F34           -0.2904   -18.6831    -1.7176 F       
  35 H35           -1.1044    -2.2642    -4.9257 H       
  36 H36           -2.3534    -3.5151    -5.1339 H       
  37 H37           -0.8472    -4.7657    -6.6557 H       
  38 H38            0.4018    -3.5148    -6.4475 H       
  39 H39           -3.2285    -0.9683    -7.6216 H       
  40 H40            2.8937    -7.5755    -4.6109 H       
  41 H41            3.6252    -8.6545    -2.5178 H       
  42 H42            0.1553    -5.2115    -2.2932 H       
  43 H43           -0.3508    -4.4550    -3.8928 H       
  44 H44            2.2231    -7.9098     0.7133 H       
  45 H45            4.5529    -8.7190    -0.8432 H       
  46 H46            3.6558    -9.3593     2.0017 H       
  47 H47            5.2004    -9.8830     1.2888 H       
  48 H48            5.5761    -7.8320     2.5635 H       
  49 H49            5.7430    -7.4685     0.8290 H       
  50 H50            4.2571    -7.0105     1.6953 H       
  51 H51            4.2120   -13.0870    -2.3766 H       
  52 H52            5.0131   -10.8518    -1.7328 H       
  53 H53            1.5078   -10.2567     0.6246 H       
  54 H54            0.6911   -12.4891    -0.0095 H       
  55 H55            0.0961   -14.1306    -0.4800 H       
  56 H56           -0.7101   -16.3615    -1.1324 H       
  57 H57            2.7911   -16.9531    -3.4966 H       
  58 H58            3.6066   -14.7197    -2.8644 H       
@<TRIPOS>BOND
   1    1    2 1
   2    1    4 2
   3    1    5 1
   4    2    3 1
   5    2   35 1
   6    2   36 1
   7    3   14 1
   8    3   37 1
   9    3   38 1
  10    5   39 1
  11    6    7 1
  12    6   13 2
  13    6   14 am
  14    7    8 ar
  15    7   12 ar
  16    8    9 ar
  17    8   40 1
  18    9   10 ar
  19    9   41 1
  20   10   11 ar
  21   10   15 1
  22   11   12 ar
  23   12   42 1
  24   14   43 1
  25   15   16 1
  26   15   44 1
  27   16   17 1
  28   16   22 1
  29   16   45 1
  30   17   18 1
  31   17   46 1
  32   17   47 1
  33   18   48 1
  34   18   49 1
  35   18   50 1
  36   19   20 ar
  37   19   24 ar
  38   19   25 1
  39   20   21 ar
  40   20   51 1
  41   21   22 ar
  42   21   52 1
  43   22   23 ar
  44   23   24 ar
  45   23   53 1
  46   24   54 1
  47   25   26 ar
  48   25   30 ar
  49   26   27 ar
  50   26   55 1
  51   27   28 ar
  52   27   56 1
  53   28   29 ar
  54   28   31 1
  55   29   30 ar
  56   29   57 1
  57   30   58 1
  58   31   32 1
  59   31   33 1
  60   31   34 1

#	End of record

