#	Name: ASD03731495
#	Creating user name:	WinNT
#	Creation time:	15. 06. 2019 20:45

#	Modifying user name:	WinNT
#	Modification time:	15. 06. 2019 20:45

#	Program:	/corina/corina34_cracker 3.40 0067  02.08.2006

@<TRIPOS>MOLECULE
ASD03731495
  65   70    0    0    0
SMALL
NO_CHARGES


@<TRIPOS>ATOM
   1 C1            -0.0184     1.5028     0.0103 C.2     
   2 C2             0.0021    -0.0041     0.0020 C.3     
   3 C3             1.4513    -0.4944    -0.0145 C.3     
   4 C4             1.4720    -2.0242    -0.0229 C.3     
   5 O5             1.0236     2.1234     0.0037 O.2     
   6 N6            -1.1946     2.1607     0.0195 N.am    
   7 O7             2.8256    -2.4822    -0.0383 O.3     
   8 C8             3.0219    -3.8269    -0.0473 C.ar    
   9 C9             4.3104    -4.3409    -0.0624 C.ar    
  10 C10            4.5073    -5.7082    -0.0717 C.ar    
  11 C11            3.4215    -6.5642    -0.0660 C.ar    
  12 C12            2.1363    -6.0544    -0.0514 C.ar    
  13 C13            1.9342    -4.6879    -0.0359 C.ar    
  14 C14           -1.2145     3.6256     0.0275 C.3     
  15 C15           -2.6637     4.1159     0.0371 C.3     
  16 C16           -2.6845     5.6457     0.0455 C.3     
  17 O17           -8.8979     2.7393     2.1988 O.3     
  18 C18          -10.3150     2.7928     2.4481 C.3     
  19 O19          -10.5201     4.1171     2.9744 O.3     
  20 C20           -9.5165     4.8794     2.4484 C.ar    
  21 C21           -8.5189     4.0315     1.9726 C.ar    
  22 C22           -9.3717     6.2503     2.3343 C.ar    
  23 C23           -8.2322     6.7925     1.7475 C.ar    
  24 C24           -7.2388     5.9357     1.2835 C.ar    
  25 C25           -7.3830     4.5682     1.3902 C.ar    
  26 O26           -7.9033     8.0972     1.5243 O.3     
  27 C27           -6.1403     6.8084     0.7378 C.3     
  28 C28           -6.4846     8.1968     1.2939 C.3     
  29 N29           -4.0722     6.1152     0.0546 N.am    
  30 C30           -4.7795     6.3508     1.1777 C.2     
  31 C31           -6.0970     6.8011    -0.7615 C.ar    
  32 C32           -7.0126     7.1140    -1.7413 C.ar    
  33 C33           -6.6642     7.0046    -3.0758 C.ar    
  34 C34           -5.3947     6.5797    -3.4231 C.ar    
  35 C35           -4.4744     6.2642    -2.4454 C.ar    
  36 C36           -4.8162     6.3718    -1.0995 C.ar    
  37 O37           -4.3925     6.2192     2.3196 O.2     
  38 H38           -0.4983    -0.3791     0.8948 H       
  39 H39           -0.5153    -0.3696    -0.8850 H       
  40 H40            1.9516    -0.1193    -0.9073 H       
  41 H41            1.9686    -0.1289     0.8726 H       
  42 H42            0.9717    -2.3993     0.8699 H       
  43 H43            0.9547    -2.3897    -0.9099 H       
  44 H44           -2.0280     1.6644     0.0207 H       
  45 H45            5.1588    -3.6726    -0.0672 H       
  46 H46            5.5102    -6.1088    -0.0838 H       
  47 H47            3.5775    -7.6329    -0.0732 H       
  48 H48            1.2899    -6.7252    -0.0477 H       
  49 H49            0.9302    -4.2903    -0.0196 H       
  50 H50           -0.7014     3.9910     0.9171 H       
  51 H51           -0.7098     4.0007    -0.8628 H       
  52 H52           -3.1768     3.7505    -0.8525 H       
  53 H53           -3.1683     3.7408     0.9274 H       
  54 H54           -2.1714     6.0112     0.9350 H       
  55 H55           -2.1798     6.0209    -0.8449 H       
  56 H56          -10.8722     2.6586     1.5209 H       
  57 H57          -10.6034     2.0402     3.1818 H       
  58 H58          -10.1480     6.9043     2.7032 H       
  59 H59           -6.6078     3.9142     1.0188 H       
  60 H60           -6.2650     8.9729     0.5607 H       
  61 H61           -5.9530     8.3828     2.2271 H       
  62 H62           -8.0034     7.4455    -1.4678 H       
  63 H63           -7.3818     7.2508    -3.8445 H       
  64 H64           -5.1228     6.4942    -4.4648 H       
  65 H65           -3.4852     5.9325    -2.7244 H       
@<TRIPOS>BOND
   1    1    2 1
   2    1    5 2
   3    1    6 am
   4    2    3 1
   5    2   38 1
   6    2   39 1
   7    3    4 1
   8    3   40 1
   9    3   41 1
  10    4    7 1
  11    4   42 1
  12    4   43 1
  13    6   14 1
  14    6   44 1
  15    7    8 1
  16    8    9 ar
  17    8   13 ar
  18    9   10 ar
  19    9   45 1
  20   10   11 ar
  21   10   46 1
  22   11   12 ar
  23   11   47 1
  24   12   13 ar
  25   12   48 1
  26   13   49 1
  27   14   15 1
  28   14   50 1
  29   14   51 1
  30   15   16 1
  31   15   52 1
  32   15   53 1
  33   16   29 1
  34   16   54 1
  35   16   55 1
  36   17   18 1
  37   17   21 1
  38   18   19 1
  39   18   56 1
  40   18   57 1
  41   19   20 1
  42   20   21 ar
  43   20   22 ar
  44   21   25 ar
  45   22   23 ar
  46   22   58 1
  47   23   24 ar
  48   23   26 1
  49   24   25 ar
  50   24   27 1
  51   25   59 1
  52   26   28 1
  53   27   28 1
  54   27   30 1
  55   27   31 1
  56   28   60 1
  57   28   61 1
  58   29   30 am
  59   29   36 1
  60   30   37 2
  61   31   32 ar
  62   31   36 ar
  63   32   33 ar
  64   32   62 1
  65   33   34 ar
  66   33   63 1
  67   34   35 ar
  68   34   64 1
  69   35   36 ar
  70   35   65 1

#	End of record

