#	Name: ASD03330784
#	Creating user name:	WinNT
#	Creation time:	15. 06. 2019 20:37

#	Modifying user name:	WinNT
#	Modification time:	15. 06. 2019 20:37

#	Program:	/corina/corina34_cracker 3.40 0067  02.08.2006

@<TRIPOS>MOLECULE
ASD03330784
  57   59    0    0    0
SMALL
NO_CHARGES


@<TRIPOS>ATOM
   1 C1            -0.7116     1.9007    -0.2694 C.2     
   2 N2            -0.9230     0.5608    -0.1783 N.pl3   
   3 C3             0.6298     2.1034    -0.1502 C.2     
   4 N4             1.2180     0.8956    -0.0066 N.2     
   5 C5             0.2943    -0.0365    -0.0281 C.2     
   6 C6             0.5331    -1.4912     0.0914 C.ar    
   7 C7             1.3167     3.4068    -0.1736 C.2     
   8 O8             0.6743     4.4305    -0.3096 O.2     
   9 C9             3.3400     4.7605    -0.0676 C.3     
  10 N10            2.6571     3.4646    -0.0443 N.am    
  11 C11            4.7874     4.5660    -0.5240 C.3     
  12 C12            3.3255     5.3608     1.3146 C.2     
  13 O13            3.2469     4.6411     2.2876 O.2     
  14 C14           -2.2314    -0.0979    -0.2214 C.3     
  15 C15           -3.0407     0.4687    -1.3921 C.3     
  16 C16           -3.8062     1.7074    -0.9383 C.3     
  17 N17           -3.0484     2.4566     0.0659 N.3     
  18 C18           -1.7749     2.9470    -0.4819 C.3     
  19 C19           -0.2337    -2.2573     0.9699 C.ar    
  20 C20           -0.0063    -3.6147     1.0766 C.ar    
  21 C21           -3.8472     3.5621     0.6115 C.3     
  22 N22            3.4000     6.6976     1.4694 N.am    
  23 C23            0.9805    -4.2172     0.3140 C.ar    
  24 C24            4.8029     3.8876    -1.8953 C.3     
  25 C25            5.4789     5.9274    -0.6207 C.3     
  26 C26            5.5276     3.6886     0.4874 C.3     
  27 Cl27          -0.9593    -4.5690     2.1697 Cl      
  28 F28            2.2673    -1.3716    -1.5357 F       
  29 C29            1.5235    -2.1053    -0.6792 C.ar    
  30 C30            1.7444    -3.4648    -0.5587 C.ar    
  31 H31            2.8275     5.4289    -0.7595 H       
  32 H32            3.1695     2.6482     0.0642 H       
  33 H33           -2.0948    -1.1706    -0.3582 H       
  34 H34           -2.7630     0.0865     0.7121 H       
  35 H35           -2.3646     0.7375    -2.2037 H       
  36 H36           -3.7459    -0.2846    -1.7435 H       
  37 H37           -3.9906     2.3494    -1.7996 H       
  38 H38           -4.7609     1.4012    -0.5107 H       
  39 H39           -1.4885     3.8665     0.0286 H       
  40 H40           -1.8874     3.1408    -1.5486 H       
  41 H41           -1.0034    -1.7892     1.5656 H       
  42 H42           -4.7477     3.1636     1.0789 H       
  43 H43           -3.2605     4.1020     1.3548 H       
  44 H44           -4.1261     4.2411    -0.1943 H       
  45 H45            3.3899     7.2772     0.6918 H       
  46 H46            3.4636     7.0800     2.3586 H       
  47 H47            1.1542    -5.2795     0.4018 H       
  48 H48            4.2755     4.5127    -2.6159 H       
  49 H49            5.8340     3.7491    -2.2205 H       
  50 H50            4.3102     2.9178    -1.8265 H       
  51 H51            5.5522     6.3690     0.3732 H       
  52 H52            6.4786     5.7984    -1.0355 H       
  53 H53            4.8987     6.5845    -1.2684 H       
  54 H54            5.0349     2.7187     0.5563 H       
  55 H55            6.5587     3.5501     0.1623 H       
  56 H56            5.5165     4.1719     1.4644 H       
  57 H57            2.5095    -3.9413    -1.1536 H       
@<TRIPOS>BOND
   1    1    2 1
   2    1    3 2
   3    1   18 1
   4    2   14 1
   5    2    5 1
   6    3    4 1
   7    3    7 1
   8    4    5 2
   9    5    6 1
  10    6   29 ar
  11    6   19 ar
  12    7    8 2
  13    7   10 am
  14    9   10 1
  15    9   11 1
  16    9   12 1
  17    9   31 1
  18   10   32 1
  19   11   24 1
  20   11   25 1
  21   11   26 1
  22   12   13 2
  23   12   22 am
  24   14   15 1
  25   14   33 1
  26   14   34 1
  27   15   16 1
  28   15   35 1
  29   15   36 1
  30   16   17 1
  31   16   37 1
  32   16   38 1
  33   17   18 1
  34   17   21 1
  35   18   39 1
  36   18   40 1
  37   19   20 ar
  38   19   41 1
  39   20   27 1
  40   20   23 ar
  41   21   42 1
  42   21   43 1
  43   21   44 1
  44   22   45 1
  45   22   46 1
  46   23   30 ar
  47   23   47 1
  48   24   48 1
  49   24   49 1
  50   24   50 1
  51   25   51 1
  52   25   52 1
  53   25   53 1
  54   26   54 1
  55   26   55 1
  56   26   56 1
  57   28   29 1
  58   29   30 ar
  59   30   57 1

#	End of record

