#	Name: ASD03090022
#	Creating user name:	WinNT
#	Creation time:	15. 06. 2019 20:28

#	Modifying user name:	WinNT
#	Modification time:	15. 06. 2019 20:28

#	Program:	/corina/corina34_cracker 3.40 0067  02.08.2006

@<TRIPOS>MOLECULE
ASD03090022
  41   43    0    0    0
SMALL
NO_CHARGES


@<TRIPOS>ATOM
   1 C1             0.1800     0.8132    -0.0291 C.ar    
   2 C2            -0.0533    -0.5376     0.1816 C.ar    
   3 C3            -1.3449    -1.0106     0.2832 C.ar    
   4 C4            -2.4243    -0.1356     0.1740 C.ar    
   5 C5            -2.1828     1.2169    -0.0297 C.ar    
   6 C6            -0.8906     1.6900    -0.1282 C.ar    
   7 O7             1.4542     1.2776    -0.1327 O.3     
   8 C8             1.9499     1.9443     0.9269 C.2     
   9 N9             3.2318     2.3606     0.9217 N.am    
  10 C10            3.7711     3.0861     2.0746 C.3     
  11 N11           -3.8006    -0.3973     0.2271 N.3     
  12 C12           -4.5025     0.8754     0.4845 C.3     
  13 C13           -3.5170     1.9334    -0.0888 C.3     
  14 N14           -4.5204     1.1384     1.9439 N.3     
  15 C15           -4.4963     2.6194     2.0518 C.3     
  16 C16           -3.5167     3.0737     0.9493 C.3     
  17 C17           -3.8847     2.3946    -1.5005 C.3     
  18 H18           -5.4898     0.9164     0.0244 H       
  19 C19           -5.7318     0.5850     2.5638 C.3     
  20 C20           -4.1084    -1.3879     1.2672 C.3     
  21 O21            1.2415     2.1707     1.8880 O.2     
  22 H22            0.7787    -1.2210     0.2660 H       
  23 H23           -1.5206    -2.0634     0.4476 H       
  24 H24           -0.7125     2.7425    -0.2920 H       
  25 H25            3.7973     2.1799     0.1546 H       
  26 H26            3.1980     4.0003     2.2291 H       
  27 H27            3.7015     2.4590     2.9634 H       
  28 H28            4.8150     3.3387     1.8889 H       
  29 H29           -5.4896     3.0300     1.8705 H       
  30 H30           -4.1317     2.9232     3.0331 H       
  31 H31           -2.5174     3.2076     1.3634 H       
  32 H32           -3.8648     4.0004     0.4929 H       
  33 H33           -4.8787     2.8418    -1.4892 H       
  34 H34           -3.1585     3.1320    -1.8425 H       
  35 H35           -3.8789     1.5387    -2.1754 H       
  36 H36           -5.7327    -0.4995     2.4550 H       
  37 H37           -5.7491     0.8440     3.6224 H       
  38 H38           -6.6126     1.0000     2.0738 H       
  39 H39           -3.8698    -0.9728     2.2464 H       
  40 H40           -5.1683    -1.6391     1.2275 H       
  41 H41           -3.5154    -2.2870     1.0995 H       
@<TRIPOS>BOND
   1    1    2 ar
   2    1    7 1
   3    1    6 ar
   4    2    3 ar
   5    2   22 1
   6    3    4 ar
   7    3   23 1
   8    4    5 ar
   9    4   11 1
  10    5    6 ar
  11    5   13 1
  12    6   24 1
  13    7    8 1
  14    8    9 am
  15    8   21 2
  16    9   10 1
  17    9   25 1
  18   10   26 1
  19   10   27 1
  20   10   28 1
  21   11   12 1
  22   11   20 1
  23   12   13 1
  24   12   14 1
  25   12   18 1
  26   13   17 1
  27   13   16 1
  28   14   15 1
  29   14   19 1
  30   15   16 1
  31   15   29 1
  32   15   30 1
  33   16   31 1
  34   16   32 1
  35   17   33 1
  36   17   34 1
  37   17   35 1
  38   19   36 1
  39   19   37 1
  40   19   38 1
  41   20   39 1
  42   20   40 1
  43   20   41 1

#	End of record

