#	Name: ASD01882017
#	Creating user name:	WinNT
#	Creation time:	15. 06. 2019 19:43

#	Modifying user name:	WinNT
#	Modification time:	15. 06. 2019 19:43

#	Program:	/corina/corina34_cracker 3.40 0067  02.08.2006

@<TRIPOS>MOLECULE
ASD01882017
  55   58    0    0    0
SMALL
NO_CHARGES


@<TRIPOS>ATOM
   1 C1            -0.0184     1.5028     0.0103 C.3     
   2 C2             0.0021    -0.0041     0.0020 C.2     
   3 O3             1.0605    -0.5961    -0.0113 O.2     
   4 N4            -1.1558    -0.6938     0.0094 N.am    
   5 C5            -1.1521    -2.1630     0.0014 C.3     
   6 C6            -1.9997    -2.6646     1.1748 C.3     
   7 C7            -3.3942    -2.0392     1.0956 C.3     
   8 C8            -3.2789    -0.5166     1.1991 C.3     
   9 C9            -2.4458     0.0093     0.0316 C.3     
  10 C10           -4.0449    -2.4116    -0.2381 C.3     
  11 C11           -4.2546    -2.5646     2.2465 C.3     
  12 O12           -5.5568    -1.9808     2.1727 O.3     
  13 N13           -9.3559    -3.2679     5.8933 N.pl3   
  14 N14          -10.2994    -2.5275     5.4232 N.2     
  15 N15           -9.9230    -1.8831     4.3752 N.2     
  16 C16           -8.6402    -2.1938     4.0993 C.ar    
  17 C17           -8.2491    -3.1095     5.0946 C.ar    
  18 C18           -7.7261    -1.8157     3.1131 C.ar    
  19 C19           -6.4516    -2.3448     3.1295 C.ar    
  20 C20           -6.0759    -3.2499     4.1198 C.ar    
  21 C21           -6.9610    -3.6287     5.0900 C.ar    
  22 C22           -8.1283    -0.8370     2.0400 C.3     
  23 F23           -7.8468     0.4651     2.4672 F       
  24 F24           -7.4124    -1.1087     0.8691 F       
  25 F25           -9.4989    -0.9589     1.7875 F       
  26 C26           -9.4454    -4.1253     7.0778 C.3     
  27 C27           -9.9234    -5.5185     6.6640 C.3     
  28 C28           -9.9702    -6.5996     7.7457 C.3     
  29 C29          -11.2702    -5.9949     7.2117 C.3     
  30 O30            1.3223     1.9974     0.0002 O.3     
  31 H31           -0.5455     1.8639    -0.8728 H       
  32 H32           -0.5286     1.8543     0.9071 H       
  33 H33           -1.5752    -2.5244    -0.9358 H       
  34 H34           -0.1299    -2.5264     0.1074 H       
  35 H35           -2.0844    -3.7501     1.1245 H       
  36 H36           -1.5258    -2.3793     2.1140 H       
  37 H37           -4.2742    -0.0733     1.1661 H       
  38 H38           -2.7930    -0.2515     2.1381 H       
  39 H39           -2.2769     1.0787     0.1575 H       
  40 H40           -2.9766    -0.1714    -0.9031 H       
  41 H41           -4.1281    -3.4959    -0.3115 H       
  42 H42           -5.0381    -1.9663    -0.2948 H       
  43 H43           -3.4318    -2.0380    -1.0583 H       
  44 H44           -4.3378    -3.6489     2.1722 H       
  45 H45           -3.7911    -2.3000     3.1968 H       
  46 H46           -5.0754    -3.6566     4.1207 H       
  47 H47           -6.6588    -4.3311     5.8528 H       
  48 H48           -8.4640    -4.2020     7.5459 H       
  49 H49          -10.1529    -3.6939     7.7860 H       
  50 H50           -9.6523    -5.8280     5.6546 H       
  51 H51           -9.7302    -7.6203     7.4479 H       
  52 H52           -9.6604    -6.3182     8.7522 H       
  53 H53          -11.8158    -5.3158     7.8669 H       
  54 H54          -11.8856    -6.6179     6.5626 H       
  55 H55            1.3855     2.9623     0.0047 H       
@<TRIPOS>BOND
   1    1    2 1
   2    1   30 1
   3    1   31 1
   4    1   32 1
   5    2    3 2
   6    2    4 am
   7    4    5 1
   8    4    9 1
   9    5    6 1
  10    5   33 1
  11    5   34 1
  12    6    7 1
  13    6   35 1
  14    6   36 1
  15    7    8 1
  16    7   10 1
  17    7   11 1
  18    8    9 1
  19    8   37 1
  20    8   38 1
  21    9   39 1
  22    9   40 1
  23   10   41 1
  24   10   42 1
  25   10   43 1
  26   11   12 1
  27   11   44 1
  28   11   45 1
  29   12   19 1
  30   13   14 1
  31   13   17 1
  32   13   26 1
  33   14   15 2
  34   15   16 1
  35   16   17 ar
  36   16   18 ar
  37   17   21 ar
  38   18   19 ar
  39   18   22 1
  40   19   20 ar
  41   20   21 ar
  42   20   46 1
  43   21   47 1
  44   22   23 1
  45   22   24 1
  46   22   25 1
  47   26   27 1
  48   26   48 1
  49   26   49 1
  50   27   28 1
  51   27   29 1
  52   27   50 1
  53   28   29 1
  54   28   51 1
  55   28   52 1
  56   29   53 1
  57   29   54 1
  58   30   55 1

#	End of record

