#	Name: ASD03320027
#	Creating user name:	WinNT
#	Creation time:	15. 06. 2019 20:36

#	Modifying user name:	WinNT
#	Modification time:	15. 06. 2019 20:36

#	Program:	/corina/corina34_cracker 3.40 0067  02.08.2006

@<TRIPOS>MOLECULE
ASD03320027
  60   64    0    0    0
SMALL
NO_CHARGES


@<TRIPOS>ATOM
   1 C1            -0.0861     0.3406     0.8192 C.ar    
   2 C2            -0.0286    -1.0411     0.6380 C.ar    
   3 C3             1.0710     1.0873     0.7970 C.ar    
   4 C4             2.3021     0.4605     0.5929 C.ar    
   5 C5             2.3587    -0.9230     0.4115 C.ar    
   6 C6             1.2005    -1.6680     0.4341 C.ar    
   7 C7             3.5446     1.2611     0.5684 C.2     
   8 N8             3.5734     2.4408    -0.0827 N.am    
   9 O9             4.5403     0.8554     1.1355 O.2     
  10 C10           -1.2752    -1.8444     0.6627 C.ar    
  11 C11           -1.2306    -3.2244     0.4830 C.ar    
  12 C12           -2.4319    -3.9329     0.5156 C.ar    
  13 N13           -3.5671    -3.2691     0.7156 N.ar    
  14 C14           -3.5671    -1.9615     0.8815 C.ar    
  15 N15           -2.4558    -1.2566     0.8629 N.ar    
  16 N16           -2.4424    -5.3086     0.3416 N.pl3   
  17 C17           -3.6345    -6.0230     0.4917 C.ar    
  18 C18           -3.8513    -7.1781    -0.2480 C.ar    
  19 C19           -5.0312    -7.8819    -0.0971 C.ar    
  20 C20           -5.9953    -7.4364     0.7897 C.ar    
  21 C21           -5.7819    -6.2861     1.5271 C.ar    
  22 C22           -4.6026    -5.5819     1.3854 C.ar    
  23 C23            4.7638     3.3004    -0.0208 C.3     
  24 C24            5.2278     3.5988    -1.4519 C.3     
  25 N25            4.0695     4.0483    -2.2370 N.am    
  26 C26            2.8792     3.1887    -2.2989 C.3     
  27 C27            2.4173     2.8877    -0.8724 C.3     
  28 C28            4.0984     5.2280    -2.8881 C.2     
  29 C29            5.3412     6.0253    -2.9171 C.ar    
  30 O30            3.1013     5.6358    -3.4517 O.2     
  31 C31            5.3166     7.3780    -2.5640 C.ar    
  32 C32            6.4854     8.1171    -2.5935 C.ar    
  33 C33            7.6737     7.5207    -2.9707 C.ar    
  34 C34            7.7037     6.1816    -3.3214 C.ar    
  35 C35            6.5480     5.4306    -3.2918 C.ar    
  36 F36            4.1550     7.9613    -2.1956 F       
  37 Br37          -5.3284    -9.4548    -1.1040 Br      
  38 H38           -1.0388     0.8257     0.9726 H       
  39 H39            1.0262     2.1572     0.9370 H       
  40 H40            3.3103    -1.4086     0.2533 H       
  41 H41            1.2440    -2.7380     0.2939 H       
  42 H42           -0.2913    -3.7326     0.3224 H       
  43 H43           -4.5068    -1.4538     1.0414 H       
  44 H44           -1.6226    -5.7752     0.1158 H       
  45 H45           -3.0991    -7.5258    -0.9405 H       
  46 H46           -6.9165    -7.9880     0.9060 H       
  47 H47           -6.5367    -5.9406     2.2179 H       
  48 H48           -4.4367    -4.6839     1.9620 H       
  49 H49            4.5154     4.2333     0.4852 H       
  50 H50            5.5578     2.7873     0.5217 H       
  51 H51            5.9848     4.3829    -1.4350 H       
  52 H52            5.6434     2.6951    -1.8976 H       
  53 H53            2.0851     3.7018    -2.8414 H       
  54 H54            3.1276     2.2558    -2.8049 H       
  55 H55            1.6604     2.1036    -0.8907 H       
  56 H56            2.0018     3.7903    -0.4243 H       
  57 H57            6.4694     9.1622    -2.3216 H       
  58 H58            8.5835     8.1023    -2.9924 H       
  59 H59            8.6363     5.7229    -3.6150 H       
  60 H60            6.5743     4.3863    -3.5659 H       
@<TRIPOS>BOND
   1    1    2 ar
   2    1    3 ar
   3    1   38 1
   4    2   10 1
   5    2    6 ar
   6    3    4 ar
   7    3   39 1
   8    4    5 ar
   9    4    7 1
  10    5    6 ar
  11    5   40 1
  12    6   41 1
  13    7    8 am
  14    7    9 2
  15    8   23 1
  16    8   27 1
  17   10   11 ar
  18   10   15 ar
  19   11   12 ar
  20   11   42 1
  21   12   13 ar
  22   12   16 1
  23   13   14 ar
  24   14   15 ar
  25   14   43 1
  26   16   17 1
  27   16   44 1
  28   17   18 ar
  29   17   22 ar
  30   18   19 ar
  31   18   45 1
  32   19   20 ar
  33   19   37 1
  34   20   21 ar
  35   20   46 1
  36   21   22 ar
  37   21   47 1
  38   22   48 1
  39   23   24 1
  40   23   49 1
  41   23   50 1
  42   24   25 1
  43   24   51 1
  44   24   52 1
  45   25   26 1
  46   25   28 am
  47   26   27 1
  48   26   53 1
  49   26   54 1
  50   27   55 1
  51   27   56 1
  52   28   29 1
  53   28   30 2
  54   29   31 ar
  55   29   35 ar
  56   31   32 ar
  57   31   36 1
  58   32   33 ar
  59   32   57 1
  60   33   34 ar
  61   33   58 1
  62   34   35 ar
  63   34   59 1
  64   35   60 1

#	End of record

