#	Name: ASD04590539
#	Creating user name:	WinNT
#	Creation time:	15. 06. 2019 20:51

#	Modifying user name:	WinNT
#	Modification time:	15. 06. 2019 20:51

#	Program:	/corina/corina34_cracker 3.40 0067  02.08.2006

@<TRIPOS>MOLECULE
ASD04590539
  57   61    0    0    0
SMALL
NO_CHARGES


@<TRIPOS>ATOM
   1 C1            -0.0026     1.3955     0.0533 C.ar    
   2 C2             0.0133     0.0083     0.0206 C.ar    
   3 C3             2.4062     0.0262     0.0303 C.ar    
   4 C4             2.3899     1.4317     0.0630 C.ar    
   5 C5             1.1780     2.1080     0.0745 C.ar    
   6 N6             3.7058    -0.3593     0.0259 N.2     
   7 C7             4.4793     0.6990     0.0533 C.2     
   8 N8             3.7122     1.8328     0.0770 N.pl3   
   9 C9             5.9566     0.6722     0.0579 C.2     
  10 C10            6.7671    -0.4863     0.0332 C.2     
  11 C11            8.0618    -0.0853     0.0465 C.2     
  12 N12            8.0768     1.2732     0.0783 N.pl3   
  13 N13            6.7510     1.7245     0.0798 N.2     
  14 N14            6.3120    -1.8145     0.0013 N.am    
  15 C15            7.1979    -2.8300    -0.0198 C.2     
  16 O16            8.3914    -2.5961    -0.0112 O.2     
  17 C17            1.1962    -0.6749     0.0093 C.ar    
  18 C18           -1.2875    -0.7522    -0.0022 C.3     
  19 N19           -1.7050    -0.9666    -1.3942 N.3     
  20 C20           -2.8361    -1.9029    -1.4667 C.3     
  21 C21           -3.2763    -2.0510    -2.9256 C.3     
  22 O22           -2.1635    -2.4843    -3.7124 O.3     
  23 C23           -1.0441    -1.5953    -3.6653 C.3     
  24 C24           -0.5813    -1.4426    -2.2140 C.3     
  25 C25            6.7202    -4.2242    -0.0534 C.ar    
  26 C26            7.6336    -5.2805    -0.1982 C.ar    
  27 C27            5.3564    -4.5030     0.0645 C.ar    
  28 C28            4.9164    -5.8084     0.0328 C.ar    
  29 C29            5.8199    -6.8485    -0.1150 C.ar    
  30 C30            7.1708    -6.5899    -0.2279 C.ar    
  31 N31            8.9927    -5.0176    -0.3116 N.pl3   
  32 C32            9.9543    -6.1229    -0.3207 C.3     
  33 H33           -0.9462     1.9210     0.0577 H       
  34 H34            1.1596     3.1875     0.0995 H       
  35 H35            4.0363     2.7467     0.0994 H       
  36 H36            8.9276    -0.7307     0.0343 H       
  37 H37            8.8686     1.8334     0.0942 H       
  38 H38            5.3602    -2.0010    -0.0056 H       
  39 H39            1.1970    -1.7546    -0.0155 H       
  40 H40           -1.1537    -1.7157     0.4895 H       
  41 H41           -2.0523    -0.1796     0.5224 H       
  42 H42           -2.5299    -2.8743    -1.0785 H       
  43 H43           -3.6657    -1.5182    -0.8735 H       
  44 H44           -4.0772    -2.7875    -2.9911 H       
  45 H45           -3.6330    -1.0904    -3.2974 H       
  46 H46           -0.2306    -2.0023    -4.2658 H       
  47 H47           -1.3359    -0.6216    -4.0587 H       
  48 H48            0.2350    -0.7220    -2.1662 H       
  49 H49           -0.2391    -2.4067    -1.8377 H       
  50 H50            4.6478    -3.6963     0.1806 H       
  51 H51            3.8617    -6.0220     0.1241 H       
  52 H52            5.4651    -7.8683    -0.1379 H       
  53 H53            7.8686    -7.4061    -0.3432 H       
  54 H54            9.3052    -4.1023    -0.3847 H       
  55 H55            9.8714    -6.6843     0.6099 H       
  56 H56            9.7424    -6.7818    -1.1627 H       
  57 H57           10.9645    -5.7248    -0.4162 H       
@<TRIPOS>BOND
   1    1    2 ar
   2    1    5 ar
   3    1   33 1
   4    2   17 ar
   5    2   18 1
   6    3    4 ar
   7    3    6 1
   8    3   17 ar
   9    4    5 ar
  10    4    8 1
  11    5   34 1
  12    6    7 2
  13    7    8 1
  14    7    9 1
  15    8   35 1
  16    9   10 1
  17    9   13 2
  18   10   11 2
  19   10   14 1
  20   11   12 1
  21   11   36 1
  22   12   13 1
  23   12   37 1
  24   14   15 am
  25   14   38 1
  26   15   16 2
  27   15   25 1
  28   17   39 1
  29   18   19 1
  30   18   40 1
  31   18   41 1
  32   19   20 1
  33   19   24 1
  34   20   21 1
  35   20   42 1
  36   20   43 1
  37   21   22 1
  38   21   44 1
  39   21   45 1
  40   22   23 1
  41   23   24 1
  42   23   46 1
  43   23   47 1
  44   24   48 1
  45   24   49 1
  46   25   26 ar
  47   25   27 ar
  48   26   31 1
  49   26   30 ar
  50   27   28 ar
  51   27   50 1
  52   28   29 ar
  53   28   51 1
  54   29   30 ar
  55   29   52 1
  56   30   53 1
  57   31   32 1
  58   31   54 1
  59   32   55 1
  60   32   56 1
  61   32   57 1

#	End of record

