#	Name: ASD07100012
#	Creating user name:	WinNT
#	Creation time:	15. 06. 2019 21:08

#	Modifying user name:	WinNT
#	Modification time:	15. 06. 2019 21:08

#	Program:	/corina/corina34_cracker 3.40 0067  02.08.2006

@<TRIPOS>MOLECULE
ASD07100012
  32   31    0    0    0
SMALL
NO_CHARGES


@<TRIPOS>ATOM
   1 C1            -0.0184     1.5028     0.0103 C.2     
   2 C2             0.0021    -0.0041     0.0020 C.3     
   3 C3             1.4513    -0.4944    -0.0145 C.3     
   4 C4             1.4720    -2.0242    -0.0229 C.3     
   5 C5             2.9170    -2.5153     0.0864 C.3     
   6 O6             1.0197     2.1211     0.0037 O.2     
   7 O7            -1.1898     2.1580     0.0194 O.3     
   8 C8             2.1775     0.0187     1.2307 C.3     
   9 O9             2.9363    -3.9441     0.0786 O.3     
  10 P10            4.2943    -4.8032     0.1787 P.3     
  11 O11            5.2246    -4.3821    -0.8926 O.2     
  12 O12            3.9534    -6.3676     0.0092 O.3     
  13 P13            4.8382    -7.6790    -0.2896 P.3     
  14 O14            6.0531    -7.6576     0.5554 O.2     
  15 O15            3.9751    -8.9963     0.0448 O.3     
  16 O16            5.2645    -7.6965    -1.8421 O.3     
  17 O17            4.9812    -4.5560     1.6137 O.3     
  18 O18            2.1072    -0.0027    -1.1849 O.3     
  19 H19           -0.4983    -0.3791     0.8948 H       
  20 H20           -0.5153    -0.3696    -0.8850 H       
  21 H21            0.8956    -2.4001     0.8225 H       
  22 H22            1.0338    -2.3884    -0.9521 H       
  23 H23            3.4934    -2.1394    -0.7589 H       
  24 H24            3.3552    -2.1511     1.0156 H       
  25 H25           -1.1523     3.1243     0.0245 H       
  26 H26            1.6771    -0.3564     2.1235 H       
  27 H27            3.2099    -0.3306     1.2189 H       
  28 H28            2.1627     1.1086     1.2367 H       
  29 H29            4.4466    -9.8259    -0.1123 H       
  30 H30            4.5168    -7.7110    -2.4551 H       
  31 H31            4.4267    -4.8102     2.3641 H       
  32 H32            1.6997    -0.2890    -2.0138 H       
@<TRIPOS>BOND
   1    1    2 1
   2    1    6 2
   3    1    7 1
   4    2    3 1
   5    2   19 1
   6    2   20 1
   7    3    4 1
   8    3    8 1
   9    3   18 1
  10    4    5 1
  11    4   21 1
  12    4   22 1
  13    5    9 1
  14    5   23 1
  15    5   24 1
  16    7   25 1
  17    8   26 1
  18    8   27 1
  19    8   28 1
  20    9   10 1
  21   10   11 2
  22   10   12 1
  23   10   17 1
  24   12   13 1
  25   13   14 2
  26   13   15 1
  27   13   16 1
  28   15   29 1
  29   16   30 1
  30   17   31 1
  31   18   32 1

#	End of record

