#	Name: ASD01883417
#	Creating user name:	WinNT
#	Creation time:	15. 06. 2019 19:46

#	Modifying user name:	WinNT
#	Modification time:	15. 06. 2019 19:46

#	Program:	/corina/corina34_cracker 3.40 0067  02.08.2006

@<TRIPOS>MOLECULE
ASD01883417
  48   51    0    0    0
SMALL
NO_CHARGES


@<TRIPOS>ATOM
   1 N1            -0.0162     1.3418     0.0094 N.am    
   2 C2             0.0021    -0.0041     0.0020 C.2     
   3 C3            -1.2147    -0.7262     0.0102 C.2     
   4 C4            -2.4239    -0.0108     0.0261 C.2     
   5 C5            -2.3777     1.3956     0.0332 C.2     
   6 C6            -1.1861     2.0320     0.0299 C.2     
   7 O7             1.0658    -0.6002    -0.0122 O.2     
   8 C8            -1.2137    -2.1582     0.0021 C.1     
   9 N9            -1.2130    -3.2942    -0.0044 N.1     
  10 C10            1.2510     2.0769     0.0013 C.3     
  11 C11           -4.8833     0.0867     0.0506 C.3     
  12 C12           -6.0051    -0.7627    -0.5533 C.3     
  13 C13           -7.3224     0.0126    -0.4777 C.3     
  14 N14           -7.6250     0.3306     0.9236 N.3     
  15 C15           -6.5849     1.1849     1.5108 C.3     
  16 C16           -5.2456     0.4446     1.4946 C.3     
  17 C17           -8.8732     0.9170     1.0408 C.ar    
  18 C18            1.6783     2.3406    -1.4440 C.3     
  19 C19            2.9231     3.2019    -1.6666 C.3     
  20 C20            2.9793     1.6949    -1.9250 C.3     
  21 N21           -3.6309    -0.6732     0.0341 N.pl3   
  22 N22           -9.3114     1.2712     2.2400 N.ar    
  23 C23          -10.4994     1.8339     2.3867 C.ar    
  24 C24          -11.2874     2.0514     1.2674 C.ar    
  25 C25          -10.7984     1.6688     0.0283 C.ar    
  26 N26           -9.5992     1.1159    -0.0495 N.ar    
  27 H27           -3.2946     1.9661     0.0450 H       
  28 H28           -1.1631     3.1117     0.0354 H       
  29 H29            1.1236     3.0263     0.5214 H       
  30 H30            2.0167     1.4867     0.5046 H       
  31 H31           -4.7632     0.9996    -0.5328 H       
  32 H32           -5.7729    -0.9849    -1.5948 H       
  33 H33           -6.0981    -1.6936     0.0061 H       
  34 H34           -7.2332     0.9368    -1.0487 H       
  35 H35           -8.1259    -0.5951    -0.8939 H       
  36 H36           -6.4992     2.1036     0.9305 H       
  37 H37           -6.8528     1.4286     2.5389 H       
  38 H38           -5.3267    -0.4673     2.0862 H       
  39 H39           -4.4708     1.0849     1.9162 H       
  40 H40            0.8661     2.4342    -2.1648 H       
  41 H41            2.9300     3.8618    -2.5341 H       
  42 H42            3.4376     3.5806    -0.7835 H       
  43 H43            3.5308     1.0822    -1.2118 H       
  44 H44            3.0232     1.3634    -2.9624 H       
  45 H45           -3.6520    -1.6429     0.0288 H       
  46 H46          -10.8513     2.1201     3.3669 H       
  47 H47          -12.2616     2.5087     1.3589 H       
  48 H48          -11.3876     1.8239    -0.8635 H       
@<TRIPOS>BOND
   1    1    2 am
   2    1   10 1
   3    1    6 1
   4    2    3 1
   5    2    7 2
   6    3    4 2
   7    3    8 1
   8    4    5 1
   9    4   21 1
  10    5    6 2
  11    5   27 1
  12    6   28 1
  13    8    9 3
  14   10   18 1
  15   10   29 1
  16   10   30 1
  17   11   12 1
  18   11   21 1
  19   11   16 1
  20   11   31 1
  21   12   13 1
  22   12   32 1
  23   12   33 1
  24   13   14 1
  25   13   34 1
  26   13   35 1
  27   14   15 1
  28   14   17 1
  29   15   16 1
  30   15   36 1
  31   15   37 1
  32   16   38 1
  33   16   39 1
  34   17   22 ar
  35   17   26 ar
  36   18   19 1
  37   18   20 1
  38   18   40 1
  39   19   20 1
  40   19   41 1
  41   19   42 1
  42   20   43 1
  43   20   44 1
  44   21   45 1
  45   22   23 ar
  46   23   24 ar
  47   23   46 1
  48   24   25 ar
  49   24   47 1
  50   25   26 ar
  51   25   48 1

#	End of record

