#	Name: ASD01912341
#	Creating user name:	WinNT
#	Creation time:	15. 06. 2019 19:59

#	Modifying user name:	WinNT
#	Modification time:	15. 06. 2019 19:59

#	Program:	/corina/corina34_cracker 3.40 0067  02.08.2006

@<TRIPOS>MOLECULE
ASD01912341
  50   52    0    0    0
SMALL
NO_CHARGES


@<TRIPOS>ATOM
   1 C1             0.1666     1.1037    -0.8297 C.ar    
   2 C2             0.0027    -0.0051     0.0145 C.ar    
   3 C3             1.0560    -0.3698     0.8608 C.ar    
   4 C4             2.2168     0.3826     0.8269 C.ar    
   5 C5             2.3027     1.4624    -0.0331 C.ar    
   6 N6             1.2974     1.7886    -0.8224 N.ar    
   7 C7            -1.2574    -0.7722     0.0105 C.2     
   8 O8            -2.3222    -0.1928     0.1056 O.2     
   9 N9            -1.2284    -2.1152    -0.0988 N.am    
  10 C10           -2.4662    -2.8968     0.0183 C.3     
  11 C11           -2.6528    -3.7207    -1.2621 C.3     
  12 C12           -1.3576    -4.4445    -1.5581 C.2     
  13 C13           -0.0809    -3.6356    -1.6257 C.3     
  14 C14            0.0405    -2.8134    -0.3423 C.3     
  15 C15           -1.3417    -5.7622    -1.7540 C.2     
  16 C16           -0.1059    -6.4297    -2.0330 C.1     
  17 C17            0.9072    -6.9769    -2.2618 C.1     
  18 C18            2.1430    -7.6445    -2.5408 C.ar    
  19 C19            2.1542    -9.0273    -2.7456 C.ar    
  20 C20            3.3559    -9.6563    -3.0140 C.ar    
  21 C21            4.5102    -8.8861    -3.0699 C.ar    
  22 C22            4.4283    -7.5220    -2.8575 C.ar    
  23 N23            3.2714    -6.9437    -2.6087 N.ar    
  24 C24            5.6797    -6.6845    -2.9177 C.3     
  25 O25           -0.8375     1.4710    -1.6609 O.3     
  26 C26           -0.6064     2.6086    -2.4943 C.3     
  27 C27           -1.8431     2.8686    -3.3567 C.3     
  28 H28            0.9649    -1.2172     1.5241 H       
  29 H29            3.0489     0.1290     1.4671 H       
  30 H30            3.2091     2.0491    -0.0589 H       
  31 H31           -2.3962    -3.5656     0.8762 H       
  32 H32           -3.3132    -2.2228     0.1459 H       
  33 H33           -3.4538    -4.4458    -1.1184 H       
  34 H34           -2.9011    -3.0586    -2.0916 H       
  35 H35            0.7739    -4.3059    -1.7161 H       
  36 H36           -0.1155    -2.9664    -2.4854 H       
  37 H37            0.8434    -2.0844    -0.4520 H       
  38 H38            0.2587    -3.4772     0.4943 H       
  39 H39           -2.2608    -6.3269    -1.7024 H       
  40 H40            1.2375    -9.5961    -2.6945 H       
  41 H41            3.3961   -10.7233    -3.1762 H       
  42 H42            5.4639    -9.3486    -3.2771 H       
  43 H43            5.8340    -6.3347    -3.9385 H       
  44 H44            5.5758    -5.8277    -2.2519 H       
  45 H45            6.5342    -7.2852    -2.6063 H       
  46 H46           -0.4078     3.4809    -1.8715 H       
  47 H47            0.2523     2.4188    -3.1383 H       
  48 H48           -2.7018     3.0584    -2.7127 H       
  49 H49           -1.6669     3.7363    -3.9924 H       
  50 H50           -2.0417     1.9964    -3.9794 H       
@<TRIPOS>BOND
   1    1    2 ar
   2    1    6 ar
   3    1   25 1
   4    2    3 ar
   5    2    7 1
   6    3    4 ar
   7    3   28 1
   8    4    5 ar
   9    4   29 1
  10    5    6 ar
  11    5   30 1
  12    7    8 2
  13    7    9 am
  14    9   10 1
  15    9   14 1
  16   10   11 1
  17   10   31 1
  18   10   32 1
  19   11   12 1
  20   11   33 1
  21   11   34 1
  22   12   13 1
  23   12   15 2
  24   13   14 1
  25   13   35 1
  26   13   36 1
  27   14   37 1
  28   14   38 1
  29   15   16 1
  30   15   39 1
  31   16   17 3
  32   17   18 1
  33   18   19 ar
  34   18   23 ar
  35   19   20 ar
  36   19   40 1
  37   20   21 ar
  38   20   41 1
  39   21   22 ar
  40   21   42 1
  41   22   23 ar
  42   22   24 1
  43   24   43 1
  44   24   44 1
  45   24   45 1
  46   25   26 1
  47   26   27 1
  48   26   46 1
  49   26   47 1
  50   27   48 1
  51   27   49 1
  52   27   50 1

#	End of record

