#	Name: ASD01900577
#	Creating user name:	WinNT
#	Creation time:	15. 06. 2019 19:52

#	Modifying user name:	WinNT
#	Modification time:	15. 06. 2019 19:52

#	Program:	/corina/corina34_cracker 3.40 0067  02.08.2006

@<TRIPOS>MOLECULE
ASD01900577
  40   43    0    0    0
SMALL
NO_CHARGES


@<TRIPOS>ATOM
   1 O1            -0.0805     1.4331     0.0226 O.3     
   2 C2            -1.1948     1.6311     0.7583 C.2     
   3 C3            -1.0294     2.7825     1.4752 C.2     
   4 C4             0.2384     3.2841     1.1468 C.2     
   5 C5             0.7868     2.4275     0.2535 C.2     
   6 C6            -2.3750     0.7638     0.7833 C.2     
   7 O7            -3.3243     1.0479     1.4904 O.2     
   8 N8            -2.4098    -0.3489     0.0236 N.am    
   9 C9            -3.4942    -1.2284     0.1200 C.ar    
  10 C10           -4.7734    -0.7326     0.3379 C.ar    
  11 C11           -5.8433    -1.6009     0.4325 C.ar    
  12 C12           -5.6395    -2.9701     0.3096 C.ar    
  13 C13           -4.3611    -3.4648     0.0923 C.ar    
  14 C14           -3.2922    -2.5964    -0.0080 C.ar    
  15 O15          -10.7751    -5.5229     0.5239 O.3     
  16 C16           -9.9057    -4.7999    -0.3546 C.3     
  17 C17           -8.4648    -5.2472    -0.0848 C.3     
  18 N18           -8.2542    -5.1314     1.3767 N.am    
  19 C19           -9.1919    -5.6912     2.3545 C.3     
  20 C20          -10.6015    -5.2578     1.9162 C.3     
  21 C21           -7.1531    -4.4016     1.5541 C.2     
  22 N22           -6.7264    -3.8527     0.4056 N.am    
  23 C23           -7.4730    -4.2543    -0.6458 C.2     
  24 S24           -6.3766    -4.1892     3.0650 S.2     
  25 O25           -7.3693    -3.8936    -1.7987 O.2     
  26 Cl26          -7.4421    -0.9822     0.7053 Cl      
  27 Cl27           2.3553     2.5904    -0.4724 Cl      
  28 H28           -1.7380     3.2213     2.1620 H       
  29 H29            0.6918     4.1849     1.5334 H       
  30 H30           -1.6833    -0.5401    -0.5900 H       
  31 H31           -4.9313     0.3315     0.4337 H       
  32 H32           -4.2030    -4.5289    -0.0028 H       
  33 H33           -2.2983    -2.9815    -0.1818 H       
  34 H34          -10.1690    -5.0147    -1.3903 H       
  35 H35           -9.9996    -3.7305    -0.1658 H       
  36 H36           -8.2864    -6.2620    -0.4405 H       
  37 H37           -9.1208    -6.7789     2.3586 H       
  38 H38           -8.9732    -5.2987     3.3476 H       
  39 H39          -10.7267    -4.1909     2.1006 H       
  40 H40          -11.3457    -5.8136     2.4867 H       
@<TRIPOS>BOND
   1    1    2 1
   2    1    5 1
   3    2    3 2
   4    2    6 1
   5    3    4 1
   6    3   28 1
   7    4    5 2
   8    4   29 1
   9    5   27 1
  10    6    7 2
  11    6    8 am
  12    8    9 1
  13    8   30 1
  14    9   10 ar
  15    9   14 ar
  16   10   11 ar
  17   10   31 1
  18   11   12 ar
  19   11   26 1
  20   12   13 ar
  21   12   22 1
  22   13   14 ar
  23   13   32 1
  24   14   33 1
  25   15   16 1
  26   15   20 1
  27   16   17 1
  28   16   34 1
  29   16   35 1
  30   17   18 1
  31   17   23 1
  32   17   36 1
  33   18   19 1
  34   18   21 am
  35   19   20 1
  36   19   37 1
  37   19   38 1
  38   20   39 1
  39   20   40 1
  40   21   22 am
  41   21   24 2
  42   22   23 am
  43   23   25 2

#	End of record

