#	Name: ASD03330581
#	Creating user name:	WinNT
#	Creation time:	15. 06. 2019 20:37

#	Modifying user name:	WinNT
#	Modification time:	15. 06. 2019 20:37

#	Program:	/corina/corina34_cracker 3.40 0067  02.08.2006

@<TRIPOS>MOLECULE
ASD03330581
  60   62    0    0    0
SMALL
NO_CHARGES


@<TRIPOS>ATOM
   1 C1            -0.0596     2.0021     1.7824 C.2     
   2 N2            -0.1480     0.7102     2.1977 N.pl3   
   3 C3             1.2170     2.1974     1.3508 C.2     
   4 N4             1.8825     1.0295     1.4895 N.2     
   5 C5             1.0694     0.1297     1.9917 C.2     
   6 C6             1.4152    -1.2776     2.2859 C.ar    
   7 C7             1.7731     3.4569     0.8258 C.2     
   8 O8             1.0703     4.4465     0.7486 O.2     
   9 C9             3.6135     4.7644    -0.0910 C.3     
  10 N10            3.0606     3.5122     0.4310 N.am    
  11 C11            3.3036     4.8751    -1.5851 C.3     
  12 C12            1.7931     4.7649    -1.8022 C.3     
  13 C13            3.7971     6.2249    -2.1097 C.3     
  14 C14            4.0107     3.7461    -2.3376 C.3     
  15 C15            5.1063     4.7787     0.1149 C.2     
  16 N16            5.7931     5.9314    -0.0122 N.am    
  17 O17            5.6897     3.7529     0.3948 O.2     
  18 C18            7.2526     5.9323     0.1147 C.3     
  19 C19           -1.3408     0.0820     2.7723 C.3     
  20 C20           -2.5561     0.4243     1.9048 C.3     
  21 C21           -3.1661     1.7431     2.3689 C.3     
  22 N22           -2.1328     2.6593     2.8556 N.3     
  23 C23           -1.1819     3.0074     1.7893 C.3     
  24 C24           -2.7324     3.8659     3.4408 C.3     
  25 C25            2.4220    -3.3583     1.6202 C.ar    
  26 C26            2.0639    -3.9168     2.8354 C.ar    
  27 C27            1.3771    -3.1618     3.7766 C.ar    
  28 C28            1.0521    -1.8474     3.5072 C.ar    
  29 C29            2.1016    -2.0433     1.3401 C.ar    
  30 F30            2.4512    -1.4995     0.1538 F       
  31 F31            2.3794    -5.2026     3.1042 F       
  32 F32            1.0302    -3.7131     4.9602 F       
  33 H33            3.1660     5.6069     0.4363 H       
  34 H34            3.6211     2.7229     0.4925 H       
  35 H35            1.2894     5.5692    -1.2661 H       
  36 H36            1.5723     4.8437    -2.8667 H       
  37 H37            1.4415     3.8032    -1.4285 H       
  38 H38            4.8413     6.3639    -1.8296 H       
  39 H39            3.7061     6.2480    -3.1957 H       
  40 H40            3.1956     7.0246    -1.6776 H       
  41 H41            3.6591     2.7844    -1.9639 H       
  42 H42            3.7899     3.8249    -3.4021 H       
  43 H43            5.0868     3.8246    -2.1830 H       
  44 H44            5.3210     6.7604    -0.1877 H       
  45 H45            7.5316     5.5671     1.1031 H       
  46 H46            7.6840     5.2834    -0.6475 H       
  47 H47            7.6282     6.9470    -0.0171 H       
  48 H48           -1.2058    -0.9992     2.7999 H       
  49 H49           -1.4982     0.4564     3.7839 H       
  50 H50           -2.2446     0.5154     0.8643 H       
  51 H51           -3.2986    -0.3689     1.9919 H       
  52 H52           -3.6915     2.2074     1.5344 H       
  53 H53           -3.8761     1.5457     3.1720 H       
  54 H54           -0.7781     4.0032     1.9719 H       
  55 H55           -1.6921     2.9906     0.8262 H       
  56 H56           -3.3722     3.5847     4.2772 H       
  57 H57           -1.9429     4.5291     3.7942 H       
  58 H58           -3.3270     4.3793     2.6851 H       
  59 H59            2.9561    -3.9499     0.8915 H       
  60 H60            0.5181    -1.2610     4.2403 H       
@<TRIPOS>BOND
   1    1    2 1
   2    1    3 2
   3    1   23 1
   4    2   19 1
   5    2    5 1
   6    3    4 1
   7    3    7 1
   8    4    5 2
   9    5    6 1
  10    6   29 ar
  11    6   28 ar
  12    7    8 2
  13    7   10 am
  14    9   10 1
  15    9   11 1
  16    9   15 1
  17    9   33 1
  18   10   34 1
  19   11   12 1
  20   11   13 1
  21   11   14 1
  22   12   35 1
  23   12   36 1
  24   12   37 1
  25   13   38 1
  26   13   39 1
  27   13   40 1
  28   14   41 1
  29   14   42 1
  30   14   43 1
  31   15   16 am
  32   15   17 2
  33   16   18 1
  34   16   44 1
  35   18   45 1
  36   18   46 1
  37   18   47 1
  38   19   20 1
  39   19   48 1
  40   19   49 1
  41   20   21 1
  42   20   50 1
  43   20   51 1
  44   21   22 1
  45   21   52 1
  46   21   53 1
  47   22   23 1
  48   22   24 1
  49   23   54 1
  50   23   55 1
  51   24   56 1
  52   24   57 1
  53   24   58 1
  54   25   26 ar
  55   25   29 ar
  56   25   59 1
  57   26   27 ar
  58   26   31 1
  59   27   28 ar
  60   27   32 1
  61   28   60 1
  62   29   30 1

#	End of record

