#	Name: ASD03330719
#	Creating user name:	WinNT
#	Creation time:	15. 06. 2019 20:37

#	Modifying user name:	WinNT
#	Modification time:	15. 06. 2019 20:37

#	Program:	/corina/corina34_cracker 3.40 0067  02.08.2006

@<TRIPOS>MOLECULE
ASD03330719
  63   64    0    0    0
SMALL
NO_CHARGES


@<TRIPOS>ATOM
   1 C1             0.1607     1.2129     0.7167 C.2     
   2 N2             0.2489    -0.1110     0.9856 N.pl3   
   3 C3             1.4326     1.6896     0.6367 C.2     
   4 N4             2.2730     0.6415     0.8418 N.2     
   5 C5             1.5651    -0.4335     1.0442 C.2     
   6 C6             2.1187    -1.8114     1.3010 C.3     
   7 C7             1.8263     3.0850     0.3754 C.2     
   8 O8             0.9738     3.9360     0.2071 O.2     
   9 C9             3.5225     4.8062     0.0629 C.3     
  10 N10            3.1311     3.4186     0.3228 N.am    
  11 C11            3.5492     5.0544    -1.4465 C.3     
  12 C12            2.1327     4.9237    -2.0100 C.3     
  13 C13            4.0798     6.4627    -1.7225 C.3     
  14 C14            4.8927     5.0576     0.6377 C.2     
  15 N15            5.3825     6.3123     0.6881 N.am    
  16 O16            5.5547     4.1310     1.0548 O.2     
  17 C17           -0.8881    -1.0139     1.1883 C.3     
  18 C18           -1.9164    -0.7857     0.0763 C.3     
  19 C19           -2.8763     0.3282     0.4821 C.3     
  20 N20           -2.1933     1.3428     1.2874 N.3     
  21 C21           -1.1152     1.9910     0.5261 C.3     
  22 C22            6.7452     6.5478     1.1717 C.3     
  23 C23            4.4616     4.0252    -2.1166 C.3     
  24 C24           -3.1459     2.3362     1.8010 C.3     
  25 C25            2.3091    -2.0122     2.8058 C.3     
  26 C26            2.8712    -3.4111     3.0666 C.3     
  27 C27            3.0615    -3.6118     4.5714 C.3     
  28 O28            3.5865    -4.9184     4.8150 O.3     
  29 H29            1.4234    -2.5592     0.9198 H       
  30 H30            3.0789    -1.9171     0.7960 H       
  31 H31            2.8037     5.4799     0.5293 H       
  32 H32            3.8109     2.7399     0.4570 H       
  33 H33            1.4827     5.6569    -1.5326 H       
  34 H34            2.1517     5.1005    -3.0854 H       
  35 H35            1.7547     3.9204    -1.8134 H       
  36 H36            5.0414     6.5924    -1.2259 H       
  37 H37            4.2042     6.6000    -2.7967 H       
  38 H38            3.3720     7.1988    -1.3416 H       
  39 H39            4.8327     7.0593     0.4042 H       
  40 H40           -0.5424    -2.0472     1.1583 H       
  41 H41           -1.3468    -0.8103     2.1559 H       
  42 H42           -1.4009    -0.5035    -0.8417 H       
  43 H43           -2.4780    -1.7046    -0.0922 H       
  44 H44           -3.2811     0.7963    -0.4152 H       
  45 H45           -3.6945    -0.0982     1.0625 H       
  46 H46           -0.9772     3.0106     0.8858 H       
  47 H47           -1.3763     2.0090    -0.5320 H       
  48 H48            6.8338     6.1890     2.1972 H       
  49 H49            7.4531     6.0140     0.5376 H       
  50 H50            6.9625     7.6154     1.1402 H       
  51 H51            4.0835     3.0219    -1.9200 H       
  52 H52            4.4806     4.2020    -3.1920 H       
  53 H53            5.4707     4.1183    -1.7152 H       
  54 H54           -3.9295     1.8304     2.3652 H       
  55 H55           -2.6239     3.0372     2.4524 H       
  56 H56           -3.5910     2.8781     0.9665 H       
  57 H57            3.0044    -1.2643     3.1871 H       
  58 H58            1.3489    -1.9064     3.3108 H       
  59 H59            2.1758    -4.1589     2.6854 H       
  60 H60            3.8313    -3.5168     2.5616 H       
  61 H61            3.7569    -2.8640     4.9526 H       
  62 H62            2.1014    -3.5061     5.0764 H       
  63 H63            3.7329    -5.1154     5.7503 H       
@<TRIPOS>BOND
   1    1    2 1
   2    1    3 2
   3    1   21 1
   4    2   17 1
   5    2    5 1
   6    3    4 1
   7    3    7 1
   8    4    5 2
   9    5    6 1
  10    6   25 1
  11    6   29 1
  12    6   30 1
  13    7    8 2
  14    7   10 am
  15    9   10 1
  16    9   11 1
  17    9   14 1
  18    9   31 1
  19   10   32 1
  20   11   12 1
  21   11   13 1
  22   11   23 1
  23   12   33 1
  24   12   34 1
  25   12   35 1
  26   13   36 1
  27   13   37 1
  28   13   38 1
  29   14   15 am
  30   14   16 2
  31   15   22 1
  32   15   39 1
  33   17   18 1
  34   17   40 1
  35   17   41 1
  36   18   19 1
  37   18   42 1
  38   18   43 1
  39   19   20 1
  40   19   44 1
  41   19   45 1
  42   20   21 1
  43   20   24 1
  44   21   46 1
  45   21   47 1
  46   22   48 1
  47   22   49 1
  48   22   50 1
  49   23   51 1
  50   23   52 1
  51   23   53 1
  52   24   54 1
  53   24   55 1
  54   24   56 1
  55   25   26 1
  56   25   57 1
  57   25   58 1
  58   26   27 1
  59   26   59 1
  60   26   60 1
  61   27   28 1
  62   27   61 1
  63   27   62 1
  64   28   63 1

#	End of record

