#	Name: ASD03092252
#	Creating user name:	WinNT
#	Creation time:	15. 06. 2019 20:32

#	Modifying user name:	WinNT
#	Modification time:	15. 06. 2019 20:32

#	Program:	/corina/corina34_cracker 3.40 0067  02.08.2006

@<TRIPOS>MOLECULE
ASD03092252
  42   44    0    0    0
SMALL
NO_CHARGES


@<TRIPOS>ATOM
   1 C1            -0.0184     1.5028     0.0103 C.3     
   2 C2             0.0021    -0.0041     0.0020 C.ar    
   3 C3             0.0057    -0.6887    -1.1989 C.ar    
   4 C4             0.0245    -2.0709    -1.2065 C.ar    
   5 C5             0.0400    -2.7685    -0.0132 C.ar    
   6 C6             0.0373    -2.0839     1.1877 C.ar    
   7 C7             0.0229    -0.7016     1.1953 C.ar    
   8 C8             0.0595    -4.2753    -0.0215 C.3     
   9 H9             0.4852    -4.7351    -0.9134 H       
  10 C10            0.2824    -4.9863     1.3148 C.3     
  11 H11            0.4150    -4.3642     2.1999 H       
  12 N12            1.0517    -6.2329     1.2977 N.am    
  13 C13            1.9928    -6.4569     2.2361 C.2     
  14 O14            2.2033    -5.6246     3.0966 O.2     
  15 C15            2.7689    -7.7145     2.2188 C.ar    
  16 C16            2.5334    -8.6698     1.2283 C.ar    
  17 C17            3.2607    -9.8413     1.2174 C.ar    
  18 C18            4.2233   -10.0712     2.1865 C.ar    
  19 Cl19           5.1353   -11.5482     2.1658 Cl      
  20 C20            4.4614    -9.1272     3.1717 C.ar    
  21 C21            3.7445    -7.9494     3.1895 C.ar    
  22 C22           -1.1018    -5.0006     0.6614 C.3     
  23 C23           -2.1940    -4.1405     1.3004 C.3     
  24 C24           -1.5762    -6.3159     0.0404 C.3     
  25 H25            1.0042     1.8801     0.0026 H       
  26 H26           -0.5455     1.8639    -0.8728 H       
  27 H27           -0.5286     1.8543     0.9071 H       
  28 H28           -0.0064    -0.1436    -2.1312 H       
  29 H29            0.0266    -2.6057    -2.1448 H       
  30 H30            0.0491    -2.6289     2.1200 H       
  31 H31            0.0246    -0.1667     2.1335 H       
  32 H32            0.8838    -6.8971     0.6110 H       
  33 H33            1.7829    -8.4918     0.4724 H       
  34 H34            3.0791   -10.5812     0.4519 H       
  35 H35            5.2132    -9.3119     3.9247 H       
  36 H36            3.9344    -7.2119     3.9553 H       
  37 H37           -2.6549    -3.5128     0.5377 H       
  38 H38           -2.9508    -4.7861     1.7458 H       
  39 H39           -1.7542    -3.5097     2.0729 H       
  40 H40           -0.7541    -7.0316     0.0331 H       
  41 H41           -2.4024    -6.7176     0.6272 H       
  42 H42           -1.9102    -6.1357    -0.9814 H       
@<TRIPOS>BOND
   1    1    2 1
   2    1   25 1
   3    1   26 1
   4    1   27 1
   5    2    7 ar
   6    2    3 ar
   7    3    4 ar
   8    3   28 1
   9    4    5 ar
  10    4   29 1
  11    5    6 ar
  12    5    8 1
  13    6    7 ar
  14    6   30 1
  15    7   31 1
  16    8    9 1
  17    8   22 1
  18    8   10 1
  19   10   11 1
  20   10   12 1
  21   10   22 1
  22   12   13 am
  23   12   32 1
  24   13   14 2
  25   13   15 1
  26   15   21 ar
  27   15   16 ar
  28   16   17 ar
  29   16   33 1
  30   17   18 ar
  31   17   34 1
  32   18   19 1
  33   18   20 ar
  34   20   21 ar
  35   20   35 1
  36   21   36 1
  37   22   23 1
  38   22   24 1
  39   23   37 1
  40   23   38 1
  41   23   39 1
  42   24   40 1
  43   24   41 1
  44   24   42 1

#	End of record

