#	Name: ASD02039134
#	Creating user name:	WinNT
#	Creation time:	15. 06. 2019 20:17

#	Modifying user name:	WinNT
#	Modification time:	15. 06. 2019 20:17

#	Program:	/corina/corina34_cracker 3.40 0067  02.08.2006

@<TRIPOS>MOLECULE
ASD02039134
  45   49    0    0    0
SMALL
NO_CHARGES


@<TRIPOS>ATOM
   1 N1            -0.2104     1.8401     0.0208 N.am    
   2 C2            -0.2181     0.4996     0.1248 C.2     
   3 C3             0.9789    -0.2436     0.2083 C.2     
   4 C4             2.1783     0.3886     0.1856 C.2     
   5 C5             2.1975     1.8482     0.0726 C.ar    
   6 C6             3.4036     2.5560     0.0430 C.ar    
   7 C7             3.3872     3.9177    -0.0641 C.ar    
   8 C8             2.1840     4.6057    -0.1441 C.ar    
   9 C9             0.9838     3.9291    -0.1169 C.ar    
  10 C10            0.9756     2.5423    -0.0081 C.ar    
  11 O11           -1.2854    -0.0885     0.1479 O.2     
  12 C12            4.6869     4.6800    -0.0954 C.3     
  13 C13            4.9786     5.5284    -1.3348 C.3     
  14 C14            4.6130     6.2060    -0.0126 C.3     
  15 O15            6.8913     5.2384    -2.9909 O.3     
  16 C16            6.4115     5.6226    -1.7920 C.2     
  17 N17            7.4095     6.0903    -1.1010 N.2     
  18 N18            8.4873     6.0205    -1.8002 N.2     
  19 C19            8.2113     5.5012    -2.9716 C.2     
  20 N20            9.1096     5.2668    -3.9974 N.pl3   
  21 C21           10.4328     5.7018    -3.8806 C.ar    
  22 C22           11.4524     5.0092    -4.5213 C.ar    
  23 C23           12.7587     5.4417    -4.4038 C.ar    
  24 C24           13.0523     6.5626    -3.6490 C.ar    
  25 C25           12.0397     7.2544    -3.0099 C.ar    
  26 C26           10.7306     6.8310    -3.1283 C.ar    
  27 C27           14.4791     7.0310    -3.5223 C.3     
  28 F28           14.7661     7.9352    -4.5505 F       
  29 F29           14.6552     7.6603    -2.2853 F       
  30 F30           15.3404     5.9324    -3.6134 F       
  31 H31           -1.0514     2.3197    -0.0387 H       
  32 H32            0.9394    -1.3197     0.2911 H       
  33 H33            3.0991    -0.1722     0.2497 H       
  34 H34            4.3438     2.0282     0.1051 H       
  35 H35            2.1887     5.6825    -0.2281 H       
  36 H36            0.0531     4.4735    -0.1793 H       
  37 H37            5.5312     4.1897     0.3890 H       
  38 H38            4.2305     5.5352    -2.1275 H       
  39 H39            3.6243     6.6585     0.0645 H       
  40 H40            5.4088     6.7199     0.5265 H       
  41 H41            8.8212     4.8005    -4.7976 H       
  42 H42           11.2238     4.1333    -5.1103 H       
  43 H43           13.5518     4.9037    -4.9017 H       
  44 H44           12.2725     8.1292    -2.4209 H       
  45 H45            9.9397     7.3745    -2.6328 H       
@<TRIPOS>BOND
   1    1    2 am
   2    1   10 1
   3    1   31 1
   4    2    3 1
   5    2   11 2
   6    3    4 2
   7    3   32 1
   8    4    5 1
   9    4   33 1
  10    5    6 ar
  11    5   10 ar
  12    6    7 ar
  13    6   34 1
  14    7    8 ar
  15    7   12 1
  16    8    9 ar
  17    8   35 1
  18    9   10 ar
  19    9   36 1
  20   12   13 1
  21   12   14 1
  22   12   37 1
  23   13   14 1
  24   13   16 1
  25   13   38 1
  26   14   39 1
  27   14   40 1
  28   15   16 1
  29   15   19 1
  30   16   17 2
  31   17   18 1
  32   18   19 2
  33   19   20 1
  34   20   21 1
  35   20   41 1
  36   21   22 ar
  37   21   26 ar
  38   22   23 ar
  39   22   42 1
  40   23   24 ar
  41   23   43 1
  42   24   25 ar
  43   24   27 1
  44   25   26 ar
  45   25   44 1
  46   26   45 1
  47   27   28 1
  48   27   29 1
  49   27   30 1

#	End of record

