#	Name: ASD03091994
#	Creating user name:	WinNT
#	Creation time:	15. 06. 2019 20:31

#	Modifying user name:	WinNT
#	Modification time:	15. 06. 2019 20:31

#	Program:	/corina/corina34_cracker 3.40 0067  02.08.2006

@<TRIPOS>MOLECULE
ASD03091994
  20   19    0    0    0
SMALL
NO_CHARGES


@<TRIPOS>ATOM
   1 Cl1            0.0021    -0.0041     0.0020 Cl      
   2 C2            -0.0215     1.7317     0.0116 C.2     
   3 C3             1.2732     2.5029     0.0033 C.3     
   4 C4             0.9733     4.0032     0.0143 C.3     
   5 S5             2.5318     4.9315     0.0044 S.3     
   6 C6             1.9779     6.6588     0.0189 C.3     
   7 C7             3.1958     7.5849     0.0123 C.3     
   8 C8             2.7287     9.0418     0.0246 C.3     
   9 O9            -1.0755     2.3213     0.0198 O.2     
  10 F10            1.9692     9.2784     1.1754 F       
  11 F11            3.8423     9.8887     0.0185 F       
  12 F12            1.9474     9.2906    -1.1090 F       
  13 H13            1.8568     2.2426     0.8864 H       
  14 H14            1.8398     2.2522    -0.8934 H       
  15 H15            0.3897     4.2635    -0.8688 H       
  16 H16            0.4067     4.2539     0.9111 H       
  17 H17            1.3692     6.8527    -0.8642 H       
  18 H18            1.3862     6.8431     0.9156 H       
  19 H19            3.8045     7.3911     0.8955 H       
  20 H20            3.7875     7.4006    -0.8844 H       
@<TRIPOS>BOND
   1    1    2 1
   2    2    3 1
   3    2    9 2
   4    3    4 1
   5    3   13 1
   6    3   14 1
   7    4    5 1
   8    4   15 1
   9    4   16 1
  10    5    6 1
  11    6    7 1
  12    6   17 1
  13    6   18 1
  14    7    8 1
  15    7   19 1
  16    7   20 1
  17    8   10 1
  18    8   11 1
  19    8   12 1

#	End of record

