#	Name: ASD01882534
#	Creating user name:	WinNT
#	Creation time:	15. 06. 2019 19:44

#	Modifying user name:	WinNT
#	Modification time:	15. 06. 2019 19:44

#	Program:	/corina/corina34_cracker 3.40 0067  02.08.2006

@<TRIPOS>MOLECULE
ASD01882534
  57   61    0    0    0
SMALL
NO_CHARGES


@<TRIPOS>ATOM
   1 C1             0.6258     1.3716    -1.0754 C.2     
   2 C2             0.6019    -0.0315    -1.0024 C.2     
   3 C3             1.1510    -0.6520     0.0867 C.2     
   4 C4             1.7295     0.1255     1.1137 C.2     
   5 C5             1.7414     1.4697     1.0231 C.2     
   6 N6             1.1965     2.0980    -0.0586 N.pl3   
   7 N7             0.4564     3.4382    -1.5741 N.2     
   8 N8             0.1947     2.2436    -1.9740 N.2     
   9 C9             1.0647     3.4073    -0.4177 C.2     
  10 C10           -0.0209    -0.8427    -2.1093 C.3     
  11 F11           -1.3552    -1.1181    -1.7915 F       
  12 F12            0.0339    -0.1191    -3.3053 F       
  13 F13            0.6805    -2.0440    -2.2585 F       
  14 N14            1.1390    -2.0403     0.1817 N.pl3   
  15 C15            2.3919    -2.8101     0.1492 C.3     
  16 C16            2.4096    -3.7620     1.3499 C.3     
  17 N17            1.1834    -4.5709     1.3476 N.3     
  18 C18           -0.0099    -3.7301     1.5114 C.3     
  19 C19           -0.1264    -2.7764     0.3235 C.3     
  20 C20            1.2386    -5.6136     2.3809 C.3     
  21 C21           -0.1164    -6.2590     2.5162 C.ar    
  22 C22           -0.4360    -7.3623     1.7473 C.ar    
  23 C23           -1.6807    -7.9553     1.8721 C.ar    
  24 C24           -2.6043    -7.4422     2.7673 C.ar    
  25 C25           -2.2826    -6.3391     3.5349 C.ar    
  26 C26           -1.0372    -5.7509     3.4132 C.ar    
  27 C27           -3.2875    -5.7805     4.5091 C.3     
  28 F28           -4.4605    -6.5412     4.4568 F       
  29 F29           -2.7584    -5.8279     5.8033 F       
  30 F30           -3.5765    -4.4539     4.1717 F       
  31 F31           -1.9942    -9.0335     1.1208 F       
  32 C32            1.5361     4.6002     0.3734 C.3     
  33 C33            2.9697     4.9474    -0.0329 C.3     
  34 C34            3.5911     6.2065     0.5750 C.3     
  35 C35            4.0567     4.8241     1.0367 C.3     
  36 H36            2.1639    -0.3593     1.9755 H       
  37 H37            2.1859     2.0553     1.8142 H       
  38 H38            2.4442    -3.3855    -0.7751 H       
  39 H39            3.2413    -2.1297     0.2088 H       
  40 H40            3.2779    -4.4175     1.2816 H       
  41 H41            2.4619    -3.1834     2.2721 H       
  42 H42           -0.8965    -4.3623     1.5603 H       
  43 H43            0.0761    -3.1518     2.4314 H       
  44 H44           -0.9411    -2.0737     0.4982 H       
  45 H45           -0.3208    -3.3485    -0.5837 H       
  46 H46            1.9734    -6.3672     2.0977 H       
  47 H47            1.5249    -5.1668     3.3330 H       
  48 H48            0.2850    -7.7614     1.0493 H       
  49 H49           -3.5758    -7.9037     2.8653 H       
  50 H50           -0.7851    -4.8915     4.0167 H       
  51 H51            0.8851     5.4507     0.1711 H       
  52 H52            1.5068     4.3652     1.4374 H       
  53 H53            3.2415     4.6968    -1.0583 H       
  54 H54            4.2719     6.7840    -0.0503 H       
  55 H55            2.9785     6.7875     1.2644 H       
  56 H56            3.7505     4.4957     2.0299 H       
  57 H57            5.0439     4.4922     0.7152 H       
@<TRIPOS>BOND
   1    1    2 1
   2    1    6 1
   3    1    8 2
   4    2    3 2
   5    2   10 1
   6    3    4 1
   7    3   14 1
   8    4    5 2
   9    4   36 1
  10    5    6 1
  11    5   37 1
  12    6    9 1
  13    7    8 1
  14    7    9 2
  15    9   32 1
  16   10   11 1
  17   10   12 1
  18   10   13 1
  19   14   15 1
  20   14   19 1
  21   15   16 1
  22   15   38 1
  23   15   39 1
  24   16   17 1
  25   16   40 1
  26   16   41 1
  27   17   18 1
  28   17   20 1
  29   18   19 1
  30   18   42 1
  31   18   43 1
  32   19   44 1
  33   19   45 1
  34   20   21 1
  35   20   46 1
  36   20   47 1
  37   21   22 ar
  38   21   26 ar
  39   22   23 ar
  40   22   48 1
  41   23   24 ar
  42   23   31 1
  43   24   25 ar
  44   24   49 1
  45   25   26 ar
  46   25   27 1
  47   26   50 1
  48   27   28 1
  49   27   29 1
  50   27   30 1
  51   32   33 1
  52   32   51 1
  53   32   52 1
  54   33   34 1
  55   33   35 1
  56   33   53 1
  57   34   35 1
  58   34   54 1
  59   34   55 1
  60   35   56 1
  61   35   57 1

#	End of record

