#	Name: ASD01913786
#	Creating user name:	WinNT
#	Creation time:	15. 06. 2019 20:02

#	Modifying user name:	WinNT
#	Modification time:	15. 06. 2019 20:02

#	Program:	/corina/corina34_cracker 3.40 0067  02.08.2006

@<TRIPOS>MOLECULE
ASD01913786
  45   48    0    0    0
SMALL
NO_CHARGES


@<TRIPOS>ATOM
   1 C1            -0.0063     1.3623     0.1894 C.ar    
   2 C2            -0.0012     0.0013    -0.0607 C.ar    
   3 C3             1.1896    -0.6595    -0.3065 C.ar    
   4 C4             2.3809     0.0353    -0.3042 C.ar    
   5 C5             2.3836     1.4100    -0.0529 C.ar    
   6 C6             1.1772     2.0704     0.1949 C.ar    
   7 C7             3.6166     2.1382    -0.0484 C.1     
   8 C8             4.6274     2.7352    -0.0448 C.1     
   9 C9             5.8604     3.4634    -0.0403 C.ar    
  10 C10            5.8714     4.8436     0.2112 C.ar    
  11 C11            8.2483     4.7810    -0.0487 C.ar    
  12 N12            8.2060     3.4770    -0.2770 N.ar    
  13 C13            7.0709     2.8095    -0.2805 C.ar    
  14 C14            7.0850     5.5015     0.2048 C.ar    
  15 N15            9.4756     5.4396    -0.0561 N.am    
  16 C16            9.6472     6.7693    -0.0560 C.2     
  17 O17           10.9314     7.1489    -0.0632 O.3     
  18 C18           11.7803     5.9700    -0.0693 C.3     
  19 C19           10.7964     4.7895    -0.0589 C.3     
  20 O20            8.7226     7.5575    -0.0502 O.2     
  21 C21           12.6398     5.9345    -1.3288 C.3     
  22 C22           13.5961     7.1299    -1.3291 C.3     
  23 C23           14.4841     7.0713    -0.0846 C.3     
  24 C24           13.6112     7.1276     1.1707 C.3     
  25 C25           12.6548     5.9323     1.1797 C.3     
  26 H26           -0.9399     1.8721     0.3764 H       
  27 H27           -0.9311    -0.5480    -0.0637 H       
  28 H28            1.1860    -1.7220    -0.5002 H       
  29 H29            3.3095    -0.4817    -0.4959 H       
  30 H30            1.1716     3.1327     0.3896 H       
  31 H31            4.9532     5.3782     0.4046 H       
  32 H32            7.0760     1.7464    -0.4706 H       
  33 H33            7.1311     6.5638     0.3940 H       
  34 H34           10.9332     4.1841     0.8371 H       
  35 H35           10.9172     4.1817    -0.9556 H       
  36 H36           13.2152     5.0090    -1.3499 H       
  37 H37           11.9976     5.9829    -2.2082 H       
  38 H38           14.2197     7.0963    -2.2225 H       
  39 H39           13.0208     8.0557    -1.3219 H       
  40 H40           15.0544     6.1424    -0.0889 H       
  41 H41           15.1703     7.9182    -0.0879 H       
  42 H42           14.2455     7.0923     2.0564 H       
  43 H43           13.0359     8.0535     1.1721 H       
  44 H44           12.0232     5.9792     2.0668 H       
  45 H45           13.2303     5.0068     1.1923 H       
@<TRIPOS>BOND
   1    1    2 ar
   2    1    6 ar
   3    1   26 1
   4    2    3 ar
   5    2   27 1
   6    3    4 ar
   7    3   28 1
   8    4    5 ar
   9    4   29 1
  10    5    6 ar
  11    5    7 1
  12    6   30 1
  13    7    8 3
  14    8    9 1
  15    9   10 ar
  16    9   13 ar
  17   10   14 ar
  18   10   31 1
  19   11   12 ar
  20   11   15 1
  21   11   14 ar
  22   12   13 ar
  23   13   32 1
  24   14   33 1
  25   15   16 am
  26   15   19 1
  27   16   17 1
  28   16   20 2
  29   17   18 1
  30   18   19 1
  31   18   21 1
  32   18   25 1
  33   19   34 1
  34   19   35 1
  35   21   22 1
  36   21   36 1
  37   21   37 1
  38   22   23 1
  39   22   38 1
  40   22   39 1
  41   23   24 1
  42   23   40 1
  43   23   41 1
  44   24   25 1
  45   24   42 1
  46   24   43 1
  47   25   44 1
  48   25   45 1

#	End of record

