#	Name: ASD01813824
#	Creating user name:	WinNT
#	Creation time:	15. 06. 2019 19:31

#	Modifying user name:	WinNT
#	Modification time:	15. 06. 2019 19:31

#	Program:	/corina/corina34_cracker 3.40 0067  02.08.2006

@<TRIPOS>MOLECULE
ASD01813824
  51   54    0    0    0
SMALL
NO_CHARGES


@<TRIPOS>ATOM
   1 C1             0.0635     1.3494     0.2056 C.2     
   2 C2             0.0613    -0.0504     0.1385 C.2     
   3 C3             1.2477    -0.7227     0.1001 C.2     
   4 C4             2.4521    -0.0000     0.1285 C.2     
   5 N5             2.4247     1.3666     0.1945 N.am    
   6 C6             1.2329     2.0277     0.2321 C.2     
   7 C7             3.6727    -0.6886     0.0892 C.2     
   8 C8             4.8484     0.0038     0.1166 C.2     
   9 C9             4.8165     1.4091     0.1841 C.2     
  10 C10            3.5731     2.0725     0.2227 C.2     
  11 O11            3.5361     3.2900     0.2807 O.2     
  12 C12            6.0640     2.1756     0.2152 C.2     
  13 O13            6.0266     3.5225     0.2798 O.3     
  14 O14            7.1339     1.5977     0.1828 O.2     
  15 C15            3.6865    -2.1938     0.0171 C.3     
  16 N16            3.8045    -2.6158    -1.3851 N.3     
  17 C17            4.0590    -4.0600    -1.4808 C.3     
  18 C18            4.0961    -4.4722    -2.9542 C.3     
  19 N19            5.1430    -3.7088    -3.6476 N.3     
  20 C20            4.8885    -2.2646    -3.5519 C.3     
  21 C21            4.8515    -1.8524    -2.0785 C.3     
  22 C22            5.2552    -4.1102    -4.9814 C.ar    
  23 C23            6.4855    -4.5114    -5.4861 C.ar    
  24 C24            6.5936    -4.9076    -6.8047 C.ar    
  25 C25            5.4776    -4.9052    -7.6229 C.ar    
  26 C26            4.2507    -4.5056    -7.1229 C.ar    
  27 C27            4.1356    -4.1143    -5.8034 C.ar    
  28 Cl28           5.6171    -5.4038    -9.2799 Cl      
  29 C29            4.4012    -5.9679    -3.0583 C.3     
  30 H30           -0.8720     1.8884     0.2319 H       
  31 H31           -0.8725    -0.5928     0.1178 H       
  32 H32            1.2610    -1.8014     0.0487 H       
  33 H33            1.2228     3.1064     0.2841 H       
  34 H34            5.7921    -0.5205     0.0874 H       
  35 H35            6.8757     3.9849     0.2982 H       
  36 H36            4.5347    -2.5769     0.5844 H       
  37 H37            2.7608    -2.5862     0.4379 H       
  38 H38            5.0162    -4.2923    -1.0140 H       
  39 H39            3.2639    -4.6039    -0.9708 H       
  40 H40            3.1298    -4.2650    -3.4142 H       
  41 H41            5.6836    -1.7207    -4.0619 H       
  42 H42            3.9313    -2.0323    -4.0187 H       
  43 H43            4.6341    -0.7868    -2.0043 H       
  44 H44            5.8177    -2.0596    -1.6185 H       
  45 H45            7.3569    -4.5131    -4.8481 H       
  46 H46            7.5501    -5.2192    -7.1977 H       
  47 H47            3.3815    -4.5040    -7.7639 H       
  48 H48            3.1778    -3.8029    -5.4136 H       
  49 H49            3.6817    -6.5279    -2.4610 H       
  50 H50            4.3309    -6.2814    -4.0999 H       
  51 H51            5.4083    -6.1598    -2.6882 H       
@<TRIPOS>BOND
   1    1    2 1
   2    1    6 2
   3    1   30 1
   4    2    3 2
   5    2   31 1
   6    3    4 1
   7    3   32 1
   8    4    5 1
   9    4    7 2
  10    5    6 1
  11    5   10 am
  12    6   33 1
  13    7    8 1
  14    7   15 1
  15    8    9 2
  16    8   34 1
  17    9   10 1
  18    9   12 1
  19   10   11 2
  20   12   13 1
  21   12   14 2
  22   13   35 1
  23   15   16 1
  24   15   36 1
  25   15   37 1
  26   16   17 1
  27   16   21 1
  28   17   18 1
  29   17   38 1
  30   17   39 1
  31   18   19 1
  32   18   29 1
  33   18   40 1
  34   19   20 1
  35   19   22 1
  36   20   21 1
  37   20   41 1
  38   20   42 1
  39   21   43 1
  40   21   44 1
  41   22   23 ar
  42   22   27 ar
  43   23   24 ar
  44   23   45 1
  45   24   25 ar
  46   24   46 1
  47   25   26 ar
  48   25   28 1
  49   26   27 ar
  50   26   47 1
  51   27   48 1
  52   29   49 1
  53   29   50 1
  54   29   51 1

#	End of record

