#	Name: ASD07931882
#	Creating user name:	WinNT
#	Creation time:	15. 06. 2019 21:13

#	Modifying user name:	WinNT
#	Modification time:	15. 06. 2019 21:13

#	Program:	/corina/corina34_cracker 3.40 0067  02.08.2006

@<TRIPOS>MOLECULE
ASD07931882
  63   66    0    0    0
SMALL
NO_CHARGES


@<TRIPOS>ATOM
   1 C1            -0.0038     1.3791     0.0446 C.2     
   2 C2            -0.0085     0.0166     0.0524 C.2     
   3 C3             1.1930    -0.7005     0.0023 C.2     
   4 C4             2.3787    -0.0206    -0.0548 C.2     
   5 C5             2.3542     1.4433    -0.0618 C.2     
   6 N6             1.1699     2.0853    -0.0121 N.am    
   7 C7            -1.2861     2.1080     0.0920 C.2     
   8 O8            -1.2934     3.3191     0.1992 O.2     
   9 N9            -2.4492     1.4312     0.0165 N.am    
  10 O10            3.3953     2.0758    -0.1118 O.2     
  11 C11            4.4783    -0.7149    -1.1360 C.2     
  12 N12            5.4892    -1.4742    -0.8126 N.2     
  13 C13            5.2929    -1.9768     0.4156 C.2     
  14 C14            4.1153    -1.5141     0.8763 C.2     
  15 N15            3.5927    -0.7115    -0.1052 N.pl3   
  16 C16            6.2283    -2.9006     1.1522 C.3     
  17 C17            1.1368     3.5499    -0.0192 C.3     
  18 C18            1.0282     4.0646     1.4176 C.3     
  19 O19            2.2118     3.7167     2.1389 O.3     
  20 C20           -3.7222     2.1548     0.0635 C.3     
  21 C21           -4.0839     2.6423    -1.3409 C.3     
  22 O22           -4.9414     0.0615    -0.2720 O.3     
  23 C23           -4.8203     1.2221     0.5783 C.3     
  24 C24           -4.4280     0.6237     1.9532 C.3     
  25 C25           -5.2583    -0.6825     1.9872 C.3     
  26 C26           -5.5796    -0.9645     0.5067 C.3     
  27 C27           -5.0407    -2.3159     0.1138 C.ar    
  28 C28           -5.8900    -3.4040     0.0430 C.ar    
  29 C29           -5.3959    -4.6462    -0.3179 C.ar    
  30 C30           -4.0511    -4.7978    -0.6084 C.ar    
  31 C31           -3.2016    -3.7073    -0.5376 C.ar    
  32 C32           -3.6988    -2.4650    -0.1811 C.ar    
  33 C33           -3.5121    -6.1493    -1.0008 C.3     
  34 F34           -3.5886    -6.2964    -2.3899 F       
  35 F35           -2.1780    -6.2556    -0.5933 F       
  36 F36           -4.2695    -7.1506    -0.3835 F       
  37 F37           -1.8888    -3.8539    -0.8209 F       
  38 F38           -6.2261    -5.7098    -0.3861 F       
  39 H39           -0.9474    -0.5150     0.0980 H       
  40 H40            1.1838    -1.7805     0.0091 H       
  41 H41           -2.4434     0.4650    -0.0690 H       
  42 H42            4.3664    -0.1759    -2.0652 H       
  43 H43            3.6681    -1.7332     1.8346 H       
  44 H44            6.9332    -2.3116     1.7390 H       
  45 H45            5.6533    -3.5463     1.8160 H       
  46 H46            6.7750    -3.5121     0.4344 H       
  47 H47            2.0509     3.9318    -0.4738 H       
  48 H48            0.2755     3.8911    -0.5934 H       
  49 H49            0.9143     5.1485     1.4076 H       
  50 H50            0.1621     3.6126     1.9009 H       
  51 H51            2.2123     4.0121     3.0597 H       
  52 H52           -3.6292     3.0105     0.7324 H       
  53 H53           -5.0310     3.1807    -1.3059 H       
  54 H54           -3.3016     3.3068    -1.7076 H       
  55 H55           -4.1769     1.7866    -2.0097 H       
  56 H56           -5.7721     1.7489     0.6464 H       
  57 H57           -3.3605     0.4071     1.9929 H       
  58 H58           -4.7187     1.2906     2.7649 H       
  59 H59           -4.6713    -1.4968     2.4120 H       
  60 H60           -6.1767    -0.5361     2.5557 H       
  61 H61           -6.6577    -0.9329     0.3489 H       
  62 H62           -6.9393    -3.2854     0.2697 H       
  63 H63           -3.0369    -1.6131    -0.1299 H       
@<TRIPOS>BOND
   1    1    2 2
   2    1    6 1
   3    1    7 1
   4    2    3 1
   5    2   39 1
   6    3    4 2
   7    3   40 1
   8    4    5 1
   9    4   15 1
  10    5    6 am
  11    5   10 2
  12    6   17 1
  13    7    8 2
  14    7    9 am
  15    9   20 1
  16    9   41 1
  17   11   12 2
  18   11   15 1
  19   11   42 1
  20   12   13 1
  21   13   14 2
  22   13   16 1
  23   14   15 1
  24   14   43 1
  25   16   44 1
  26   16   45 1
  27   16   46 1
  28   17   18 1
  29   17   47 1
  30   17   48 1
  31   18   19 1
  32   18   49 1
  33   18   50 1
  34   19   51 1
  35   20   21 1
  36   20   23 1
  37   20   52 1
  38   21   53 1
  39   21   54 1
  40   21   55 1
  41   22   26 1
  42   22   23 1
  43   23   24 1
  44   23   56 1
  45   24   25 1
  46   24   57 1
  47   24   58 1
  48   25   26 1
  49   25   59 1
  50   25   60 1
  51   26   27 1
  52   26   61 1
  53   27   28 ar
  54   27   32 ar
  55   28   29 ar
  56   28   62 1
  57   29   30 ar
  58   29   38 1
  59   30   31 ar
  60   30   33 1
  61   31   32 ar
  62   31   37 1
  63   32   63 1
  64   33   34 1
  65   33   35 1
  66   33   36 1

#	End of record

