#	Name: ASD08150169
#	Creating user name:	WinNT
#	Creation time:	15. 06. 2019 21:15

#	Modifying user name:	WinNT
#	Modification time:	15. 06. 2019 21:15

#	Program:	/corina/corina34_cracker 3.40 0067  02.08.2006

@<TRIPOS>MOLECULE
ASD08150169
  45   49    0    0    0
SMALL
NO_CHARGES


@<TRIPOS>ATOM
   1 N1             0.0118     1.3346     0.4864 N.2     
   2 C2             0.0423     0.0552     0.7063 C.2     
   3 N3             1.1900    -0.6753     0.7112 N.am    
   4 C4             2.3846    -0.0824     0.4807 C.2     
   5 C5             2.3840     1.3658     0.2282 C.ar    
   6 C6             3.5601     2.0709    -0.0203 C.ar    
   7 C7             3.5022     3.4277    -0.2513 C.ar    
   8 C8             2.2842     4.0951    -0.2378 C.ar    
   9 C9             1.1110     3.4173     0.0057 C.ar    
  10 C10            1.1435     2.0414     0.2423 C.ar    
  11 O11            3.4195    -0.7234     0.4829 O.2     
  12 C12            1.1348    -2.0533     0.9574 C.ar    
  13 C13            1.2331    -2.5329     2.2582 C.ar    
  14 C14            1.1783    -3.8929     2.4971 C.ar    
  15 C15            1.0263    -4.7757     1.4435 C.ar    
  16 C16            0.9287    -4.3012     0.1486 C.ar    
  17 C17            0.9761    -2.9424    -0.0967 C.ar    
  18 Cl18           1.4251    -1.4250     3.5809 Cl      
  19 C19           -1.2596    -0.6564     0.9699 C.3     
  20 F20           -2.3122     0.2640     0.9221 F       
  21 F21           -1.4576    -1.6421    -0.0029 F       
  22 F22           -1.2178    -1.2517     2.2352 F       
  23 C23            4.8858     1.3543    -0.0358 C.3     
  24 S24            5.5027     1.1903     1.6579 S.3     
  25 N25            7.8330     0.1423     3.7560 N.2     
  26 C26            8.9021    -0.3819     4.2817 C.2     
  27 N27            9.6934    -0.9056     3.3029 N.pl3   
  28 C28            9.0642    -0.6853     2.1037 C.ar    
  29 N29            9.3419    -0.9614     0.8335 N.ar    
  30 C30            8.5125    -0.6099    -0.1267 C.ar    
  31 N31            7.3794     0.0240     0.1122 N.ar    
  32 C32            7.0169     0.3430     1.3513 C.ar    
  33 C33            7.8703    -0.0112     2.4108 C.ar    
  34 H34            4.4117     3.9772    -0.4443 H       
  35 H35            2.2573     5.1593    -0.4202 H       
  36 H36            0.1700     3.9472     0.0140 H       
  37 H37            1.2547    -4.2667     3.5075 H       
  38 H38            0.9841    -5.8382     1.6326 H       
  39 H39            0.8108    -4.9935    -0.6720 H       
  40 H40            0.8945    -2.5726    -1.1081 H       
  41 H41            4.7585     0.3642    -0.4736 H       
  42 H42            5.6003     1.9248    -0.6291 H       
  43 H43            9.1288    -0.3995     5.3374 H       
  44 H44           10.5450    -1.3520     3.4307 H       
  45 H45            8.7688    -0.8493    -1.1482 H       
@<TRIPOS>BOND
   1    1    2 2
   2    1   10 1
   3    2    3 1
   4    2   19 1
   5    3    4 am
   6    3   12 1
   7    4    5 1
   8    4   11 2
   9    5    6 ar
  10    5   10 ar
  11    6    7 ar
  12    6   23 1
  13    7    8 ar
  14    7   34 1
  15    8    9 ar
  16    8   35 1
  17    9   10 ar
  18    9   36 1
  19   12   13 ar
  20   12   17 ar
  21   13   14 ar
  22   13   18 1
  23   14   15 ar
  24   14   37 1
  25   15   16 ar
  26   15   38 1
  27   16   17 ar
  28   16   39 1
  29   17   40 1
  30   19   20 1
  31   19   21 1
  32   19   22 1
  33   23   24 1
  34   23   41 1
  35   23   42 1
  36   24   32 1
  37   25   26 2
  38   25   33 1
  39   26   27 1
  40   26   43 1
  41   27   28 1
  42   27   44 1
  43   28   29 ar
  44   28   33 ar
  45   29   30 ar
  46   30   31 ar
  47   30   45 1
  48   31   32 ar
  49   32   33 ar

#	End of record

