#	Name: ASD01912854
#	Creating user name:	WinNT
#	Creation time:	15. 06. 2019 20:00

#	Modifying user name:	WinNT
#	Modification time:	15. 06. 2019 20:00

#	Program:	/corina/corina34_cracker 3.40 0067  02.08.2006

@<TRIPOS>MOLECULE
ASD01912854
  41   44    0    0    0
SMALL
NO_CHARGES


@<TRIPOS>ATOM
   1 C1            -0.0165     1.3669     0.0096 C.2     
   2 N2             0.0021    -0.0041     0.0020 N.pl3   
   3 C3            -1.2023    -0.6921     0.0094 C.2     
   4 C4            -2.3629    -0.0499     0.0235 C.2     
   5 N5            -2.4359     1.3308     0.0317 N.am    
   6 C6            -1.3020     2.0668     0.0309 C.2     
   7 C7             1.3014     1.7836    -0.0008 C.2     
   8 C8             2.0550     0.6110    -0.0143 C.2     
   9 N9             1.2243    -0.4045    -0.0118 N.2     
  10 O10           -1.3488     3.2837     0.0384 O.2     
  11 C11           -3.6795     1.9643     0.0465 C.ar    
  12 C12            3.5595     0.5249    -0.0291 C.3     
  13 O13            4.1120     1.8427    -0.0273 O.3     
  14 C14            5.4672     1.9435    -0.0397 C.ar    
  15 C15            6.0711     3.1925    -0.0388 C.ar    
  16 C16            7.4489     3.2923    -0.0514 C.ar    
  17 C17            8.2259     2.1487    -0.0650 C.ar    
  18 C18            7.6265     0.9027    -0.0664 C.ar    
  19 C19            6.2492     0.7976    -0.0476 C.ar    
  20 N20           -3.7542     3.2841    -0.0456 N.ar    
  21 C21           -4.8451     1.2114     0.1523 C.ar    
  22 C22           -6.0598     1.8909     0.1622 C.ar    
  23 C23           -6.0302     3.2821     0.0655 C.ar    
  24 N24           -4.8750     3.9088    -0.0365 N.ar    
  25 Cl25          -7.5123     4.1860     0.0724 Cl      
  26 O26           -7.2364     1.2207     0.2624 O.3     
  27 C27           -7.1658    -0.2035     0.3564 C.3     
  28 H28           -1.1950    -1.7720     0.0032 H       
  29 H29           -3.2785    -0.6228     0.0285 H       
  30 H30            1.6684     2.7994     0.0012 H       
  31 H31            3.9013    -0.0136     0.8548 H       
  32 H32            3.8843    -0.0041    -0.9251 H       
  33 H33            5.4646     4.0861    -0.0285 H       
  34 H34            7.9195     4.2644    -0.0511 H       
  35 H35            9.3029     2.2288    -0.0749 H       
  36 H36            8.2356     0.0110    -0.0778 H       
  37 H37            5.7814    -0.1759    -0.0487 H       
  38 H38           -4.8083     0.1344     0.2241 H       
  39 H39           -6.6763    -0.6024    -0.5321 H       
  40 H40           -6.5942    -0.4813     1.2419 H       
  41 H41           -8.1732    -0.6131     0.4310 H       
@<TRIPOS>BOND
   1    1    2 1
   2    1    7 2
   3    1    6 1
   4    2    3 1
   5    2    9 1
   6    3    4 2
   7    3   28 1
   8    4    5 1
   9    4   29 1
  10    5    6 am
  11    5   11 1
  12    6   10 2
  13    7    8 1
  14    7   30 1
  15    8    9 2
  16    8   12 1
  17   11   20 ar
  18   11   21 ar
  19   12   13 1
  20   12   31 1
  21   12   32 1
  22   13   14 1
  23   14   15 ar
  24   14   19 ar
  25   15   16 ar
  26   15   33 1
  27   16   17 ar
  28   16   34 1
  29   17   18 ar
  30   17   35 1
  31   18   19 ar
  32   18   36 1
  33   19   37 1
  34   20   24 ar
  35   21   22 ar
  36   21   38 1
  37   22   23 ar
  38   22   26 1
  39   23   24 ar
  40   23   25 1
  41   26   27 1
  42   27   39 1
  43   27   40 1
  44   27   41 1

#	End of record

