#	Name: ASD01811618
#	Creating user name:	WinNT
#	Creation time:	15. 06. 2019 19:27

#	Modifying user name:	WinNT
#	Modification time:	15. 06. 2019 19:27

#	Program:	/corina/corina34_cracker 3.40 0067  02.08.2006

@<TRIPOS>MOLECULE
ASD01811618
  70   74    0    0    0
SMALL
NO_CHARGES


@<TRIPOS>ATOM
   1 C1            -0.1817     1.1934     0.5918 C.2     
   2 N2            -0.2948    -0.1391     0.8733 N.pl3   
   3 C3             0.9677    -0.6083     1.0725 C.2     
   4 C4             1.8147     0.4336     0.9088 C.2     
   5 N5             1.0942     1.5169     0.6186 N.2     
   6 C6             3.3145     0.3286     1.0420 C.3     
   7 C7             3.7052    -1.1521     0.9645 C.3     
   8 C8             2.8406    -1.9611     1.9353 C.3     
   9 C9             1.3987    -2.0112     1.4145 C.3     
  10 C10            3.3843    -3.3623     2.0445 C.2     
  11 O11            4.3663    -3.6830     1.4090 O.2     
  12 N12            2.7794    -4.2592     2.8484 N.am    
  13 C13            3.3080    -5.6214     2.9545 C.3     
  14 C14           -1.3021     2.1144     0.3003 C.ar    
  15 C15           -1.0642     3.4833     0.1600 C.ar    
  16 C16           -2.1085     4.3443    -0.1125 C.ar    
  17 C17           -3.3942     3.8590    -0.2482 C.ar    
  18 C18           -3.6459     2.4924    -0.1103 C.ar    
  19 C19           -2.5954     1.6174     0.1596 C.ar    
  20 C20           -4.5280     4.8062    -0.5452 C.3     
  21 C21            0.3356     4.0220     0.3068 C.3     
  22 C22           -5.0231     1.9742    -0.2558 C.2     
  23 O23           -5.7007     2.3081    -1.2081 O.2     
  24 N24           -5.5272     1.1317     0.6676 N.am    
  25 C25           -6.8446     0.5106     0.4743 C.3     
  26 C26           -7.7082     0.7921     1.7079 C.3     
  27 C27           -6.9686     0.3201     2.9619 C.3     
  28 C28           -5.6563     1.0945     3.1040 C.3     
  29 C29           -4.7670     0.8121     1.8836 C.3     
  30 C30           -7.8296     0.5645     4.1744 C.ar    
  31 C31           -8.2143    -0.4991     4.9714 C.ar    
  32 C32           -9.0023    -0.2826     6.0828 C.ar    
  33 C33           -9.4114     1.0136     6.4028 C.ar    
  34 C34           -9.0191     2.0823     5.5943 C.ar    
  35 C35           -8.2270     1.8520     4.4886 C.ar    
  36 C36          -10.2299     1.2457     7.5546 C.1     
  37 N37          -10.8792     1.4298     8.4684 N.1     
  38 H38           -1.1166    -0.6520     0.9221 H       
  39 H39            3.7942     0.8776     0.2317 H       
  40 H40            3.6275     0.7411     2.0011 H       
  41 H41            3.5490    -1.5163    -0.0509 H       
  42 H42            4.7556    -1.2651     1.2331 H       
  43 H43            2.8561    -1.4876     2.9170 H       
  44 H44            0.7440    -2.4188     2.1848 H       
  45 H45            1.3519    -2.6371     0.5234 H       
  46 H46            1.9940    -4.0027     3.3566 H       
  47 H47            2.6925    -6.1972     3.6456 H       
  48 H48            3.2921    -6.0948     1.9729 H       
  49 H49            4.3329    -5.5856     3.3241 H       
  50 H50           -1.9191     5.4021    -0.2198 H       
  51 H51           -2.7839     0.5590     0.2628 H       
  52 H52           -4.6019     4.9582    -1.6220 H       
  53 H53           -5.4613     4.3838    -0.1729 H       
  54 H54           -4.3409     5.7619    -0.0554 H       
  55 H55            0.8709     3.9043    -0.6353 H       
  56 H56            0.2924     5.0788     0.5705 H       
  57 H57            0.8559     3.4728     1.0915 H       
  58 H58           -7.3217     0.9332    -0.4099 H       
  59 H59           -6.7263    -0.5657     0.3490 H       
  60 H60           -7.9009     1.8625     1.7805 H       
  61 H61           -8.6536     0.2568     1.6200 H       
  62 H62           -6.7543    -0.7453     2.8777 H       
  63 H63           -5.8683     2.1620     3.1634 H       
  64 H64           -5.1413     0.7745     4.0098 H       
  65 H65           -4.4827    -0.2402     1.8708 H       
  66 H66           -3.8728     1.4337     1.9295 H       
  67 H67           -7.8971    -1.5011     4.7227 H       
  68 H68           -9.3025    -1.1137     6.7037 H       
  69 H69           -9.3320     3.0873     5.8361 H       
  70 H70           -7.9194     2.6782     3.8647 H       
@<TRIPOS>BOND
   1    1    2 1
   2    1    5 2
   3    1   14 1
   4    2    3 1
   5    2   38 1
   6    3    4 2
   7    3    9 1
   8    4    5 1
   9    4    6 1
  10    6    7 1
  11    6   39 1
  12    6   40 1
  13    7    8 1
  14    7   41 1
  15    7   42 1
  16    8    9 1
  17    8   10 1
  18    8   43 1
  19    9   44 1
  20    9   45 1
  21   10   11 2
  22   10   12 am
  23   12   13 1
  24   12   46 1
  25   13   47 1
  26   13   48 1
  27   13   49 1
  28   14   15 ar
  29   14   19 ar
  30   15   16 ar
  31   15   21 1
  32   16   17 ar
  33   16   50 1
  34   17   18 ar
  35   17   20 1
  36   18   19 ar
  37   18   22 1
  38   19   51 1
  39   20   52 1
  40   20   53 1
  41   20   54 1
  42   21   55 1
  43   21   56 1
  44   21   57 1
  45   22   23 2
  46   22   24 am
  47   24   25 1
  48   24   29 1
  49   25   26 1
  50   25   58 1
  51   25   59 1
  52   26   27 1
  53   26   60 1
  54   26   61 1
  55   27   28 1
  56   27   30 1
  57   27   62 1
  58   28   29 1
  59   28   63 1
  60   28   64 1
  61   29   65 1
  62   29   66 1
  63   30   31 ar
  64   30   35 ar
  65   31   32 ar
  66   31   67 1
  67   32   33 ar
  68   32   68 1
  69   33   34 ar
  70   33   36 1
  71   34   35 ar
  72   34   69 1
  73   35   70 1
  74   36   37 3

#	End of record

