#	Name: ASD00460047
#	Creating user name:	WinNT
#	Creation time:	15. 06. 2019 18:36

#	Modifying user name:	WinNT
#	Modification time:	15. 06. 2019 18:36

#	Program:	/corina/corina34_cracker 3.40 0067  02.08.2006

@<TRIPOS>MOLECULE
ASD00460047
 144  143    0    0    0
SMALL
NO_CHARGES


@<TRIPOS>ATOM
   1 N1            -5.7627     4.9988     1.2211 N.pl3   
   2 C2            -5.4447     3.6694     1.0731 C.2     
   3 N3            -4.1997     3.3085     0.9370 N.2     
   4 N4            -6.4398     2.7209     1.0688 N.pl3   
   5 C5            -7.8392     3.1266     1.2218 C.3     
   6 C6            -8.7365     1.8880     1.1829 C.3     
   7 C7           -10.1980     2.3117     1.3427 C.3     
   8 C8           -11.0953     1.0731     1.3037 C.3     
   9 N9           -10.8084     0.2256     2.4637 N.am    
  10 C10          -12.5406     1.4986     1.3376 C.2     
  11 N11          -13.0335     2.2886     0.3632 N.am    
  12 O12          -13.2601     1.1302     2.2417 O.2     
  13 C13          -11.0646    -1.0966     2.4121 C.2     
  14 C14          -10.7696    -1.9684     3.6054 C.3     
  15 O15          -11.5327    -1.5847     1.4054 O.2     
  16 N16          -11.1333    -3.3542     3.2995 N.am    
  17 C17          -11.5823    -1.4810     4.8065 C.3     
  18 C18          -10.5330    -4.3685     3.9533 C.2     
  19 C19          -10.9072    -5.7940     3.6387 C.3     
  20 O20           -9.6917    -4.1339     4.7948 O.2     
  21 N21          -10.1200    -6.7018     4.4769 N.am    
  22 C22          -10.6196    -6.0832     2.1641 C.3     
  23 C23          -11.1140    -7.4881     1.8141 C.3     
  24 C24          -10.8265    -7.7773     0.3394 C.3     
  25 N25          -11.2999    -9.1226     0.0043 N.pl3   
  26 C26          -11.1487    -9.6060    -1.2739 C.2     
  27 N27          -11.5929   -10.8685    -1.5884 N.pl3   
  28 N28          -10.5842    -8.8674    -2.1874 N.2     
  29 C29          -10.5883    -7.9333     4.7606 C.2     
  30 C30           -9.7786    -8.8672     5.6228 C.3     
  31 O31          -11.6613    -8.2900     4.3221 O.2     
  32 N32          -10.4989   -10.1330     5.7818 N.am    
  33 C33           -9.5574    -8.2303     6.9963 C.3     
  34 C34           -8.6323    -9.1207     7.8283 C.3     
  35 C35           -8.4111    -8.4839     9.2017 C.3     
  36 N36           -7.5252    -9.3364     9.9984 N.pl3   
  37 C37           -7.1815    -8.9658    11.2769 C.2     
  38 N38           -6.3502    -9.7660    12.0246 N.pl3   
  39 N39           -7.6438    -7.8560    11.7803 N.2     
  40 C40           -9.8200   -11.2650     6.0539 C.2     
  41 C41          -10.5609   -12.5671     6.2174 C.3     
  42 O42           -8.6128   -11.2358     6.1673 O.2     
  43 N43           -9.6055   -13.6396     6.5060 N.am    
  44 C44          -11.3156   -12.8900     4.9263 C.3     
  45 C45          -12.1661   -14.1449     5.1330 C.3     
  46 C46          -12.9208   -14.4679     3.8419 C.3     
  47 N47          -13.7353   -15.6694     4.0398 N.pl3   
  48 C48          -14.5063   -16.1546     3.0101 C.2     
  49 N49          -15.2706   -17.2822     3.1958 N.pl3   
  50 N50          -14.5127   -15.5454     1.8578 N.2     
  51 C51          -10.0091   -14.7409     7.1699 C.2     
  52 C52           -9.0264   -15.8442     7.4667 C.3     
  53 O53          -11.1631   -14.8440     7.5284 O.2     
  54 N54           -9.7055   -16.9211     8.1914 N.am    
  55 C55           -7.8849   -15.2935     8.3238 C.3     
  56 C56           -9.2266   -18.1795     8.1324 C.2     
  57 C57           -9.9252   -19.2874     8.8779 C.3     
  58 O58           -8.2334   -18.4204     7.4793 O.2     
  59 C59          -11.1419   -19.7536     8.0760 C.3     
  60 N60           -9.0021   -20.4100     9.0618 N.am    
  61 C61           -8.4681   -21.0261     7.9885 C.2     
  62 C62           -7.5186   -22.1809     8.1776 C.3     
  63 O63           -8.7517   -20.6510     6.8706 O.2     
  64 S64          -12.0661   -20.9821     9.0388 S.3     
  65 S65          -12.8766   -19.8651    10.5547 S.3     
  66 C66          -14.3991   -19.2147     9.8133 C.3     
  67 C67          -15.4612   -20.3155     9.7808 C.3     
  68 C68          -16.7643   -19.7418     9.2870 C.2     
  69 N69          -15.0258   -21.3896     8.8782 N.3     
  70 O70          -17.0984   -19.9035     8.1372 O.2     
  71 O71          -17.5538   -19.0512    10.1245 O.3     
  72 H72           -5.0606     5.6680     1.2242 H       
  73 H73           -6.6896     5.2678     1.3184 H       
  74 H74           -3.4975     3.9777     0.9400 H       
  75 H75           -6.2155     1.7830     0.9644 H       
  76 H76           -7.9670     3.6380     2.1759 H       
  77 H77           -8.1133     3.7996     0.4094 H       
  78 H78           -8.6088     1.3767     0.2288 H       
  79 H79           -8.4624     1.2151     1.9953 H       
  80 H80          -10.3257     2.8231     2.2968 H       
  81 H81          -10.4721     2.9847     0.5302 H       
  82 H82          -10.9026     0.5136     0.3884 H       
  83 H83          -10.4341     0.6160     3.2689 H       
  84 H84          -12.4580     2.5832    -0.3599 H       
  85 H85          -13.9638     2.5624     0.3850 H       
  86 H86           -9.7065    -1.9152     3.8402 H       
  87 H87          -11.8062    -3.5418     2.6265 H       
  88 H88          -12.6453    -1.5343     4.5717 H       
  89 H89          -11.3688    -2.1116     5.6696 H       
  90 H90          -11.3116    -0.4500     5.0341 H       
  91 H91          -11.9683    -5.9436     3.8381 H       
  92 H92           -9.2618    -6.4165     4.8276 H       
  93 H93          -11.1358    -5.3511     1.5429 H       
  94 H94           -9.5465    -6.0203     1.9840 H       
  95 H95          -10.5979    -8.2202     2.4352 H       
  96 H96          -12.1872    -7.5510     1.9941 H       
  97 H97          -11.3427    -7.0453    -0.2817 H       
  98 H98           -9.7533    -7.7144     0.1593 H       
  99 H99          -11.7200    -9.6723     0.6842 H       
 100 H100         -12.0131   -11.4182    -0.9085 H       
 101 H101         -11.4862   -11.2096    -2.4902 H       
 102 H102         -10.4775    -9.2084    -3.0892 H       
 103 H103          -8.8147    -9.0545     5.1497 H       
 104 H104         -11.4643   -10.1563     5.6911 H       
 105 H105          -9.1013    -7.2481     6.8721 H       
 106 H106         -10.5150    -8.1245     7.5062 H       
 107 H107          -9.0883   -10.1029     7.9524 H       
 108 H108          -7.6747    -9.2266     7.3184 H       
 109 H109          -7.9550    -7.5017     9.0776 H       
 110 H110          -9.3686    -8.3780     9.7116 H       
 111 H111          -7.1812   -10.1624     9.6238 H       
 112 H112          -6.0061   -10.5919    11.6500 H       
 113 H113          -6.1077    -9.5045    12.9266 H       
 114 H114          -7.4013    -7.5945    12.6824 H       
 115 H115         -11.2699   -12.4808     7.0408 H       
 116 H116          -8.6826   -13.5571     6.2192 H       
 117 H117         -11.9617   -12.0523     4.6639 H       
 118 H118         -10.6011   -13.0638     4.1216 H       
 119 H119         -11.5200   -14.9826     5.3954 H       
 120 H120         -12.8806   -13.9711     5.9377 H       
 121 H121         -13.5669   -13.6302     3.5795 H       
 122 H122         -12.2064   -14.6417     3.0372 H       
 123 H123         -13.7305   -16.1227     4.8974 H       
 124 H124         -15.2659   -17.7355     4.0534 H       
 125 H125         -15.8147   -17.6244     2.4693 H       
 126 H126         -15.0567   -15.8877     1.1313 H       
 127 H127          -8.6236   -16.2333     6.5316 H       
 128 H128         -10.4998   -16.7285     8.7138 H       
 129 H129          -8.2877   -14.9044     9.2589 H       
 130 H130          -7.1741   -16.0915     8.5385 H       
 131 H131          -7.3796   -14.4922     7.7845 H       
 132 H132         -10.2504   -18.9212     9.8517 H       
 133 H133         -11.7854   -18.9000     7.8628 H       
 134 H134         -10.8098   -20.2011     7.1392 H       
 135 H135          -8.7752   -20.7100     9.9559 H       
 136 H136          -7.3860   -22.3716     9.2426 H       
 137 H137          -7.9275   -23.0699     7.6975 H       
 138 H138          -6.5554   -21.9365     7.7296 H       
 139 H139         -14.7629   -18.3762    10.4071 H       
 140 H140         -14.1934   -18.8782     8.7972 H       
 141 H141         -15.5985   -20.7177    10.7846 H       
 142 H142         -14.7803   -21.0223     7.9711 H       
 143 H143         -14.2584   -21.9088     9.2778 H       
 144 H144         -18.3797   -18.7025     9.7620 H       
@<TRIPOS>BOND
   1    1    2 1
   2    1   72 1
   3    1   73 1
   4    2    3 2
   5    2    4 1
   6    3   74 1
   7    4    5 1
   8    4   75 1
   9    5    6 1
  10    5   76 1
  11    5   77 1
  12    6    7 1
  13    6   78 1
  14    6   79 1
  15    7    8 1
  16    7   80 1
  17    7   81 1
  18    8    9 1
  19    8   10 1
  20    8   82 1
  21    9   13 am
  22    9   83 1
  23   10   11 am
  24   10   12 2
  25   11   84 1
  26   11   85 1
  27   13   14 1
  28   13   15 2
  29   14   16 1
  30   14   17 1
  31   14   86 1
  32   16   18 am
  33   16   87 1
  34   17   88 1
  35   17   89 1
  36   17   90 1
  37   18   19 1
  38   18   20 2
  39   19   21 1
  40   19   22 1
  41   19   91 1
  42   21   29 am
  43   21   92 1
  44   22   23 1
  45   22   93 1
  46   22   94 1
  47   23   24 1
  48   23   95 1
  49   23   96 1
  50   24   25 1
  51   24   97 1
  52   24   98 1
  53   25   26 1
  54   25   99 1
  55   26   27 1
  56   26   28 2
  57   27  100 1
  58   27  101 1
  59   28  102 1
  60   29   30 1
  61   29   31 2
  62   30   32 1
  63   30   33 1
  64   30  103 1
  65   32   40 am
  66   32  104 1
  67   33   34 1
  68   33  105 1
  69   33  106 1
  70   34   35 1
  71   34  107 1
  72   34  108 1
  73   35   36 1
  74   35  109 1
  75   35  110 1
  76   36   37 1
  77   36  111 1
  78   37   38 1
  79   37   39 2
  80   38  112 1
  81   38  113 1
  82   39  114 1
  83   40   41 1
  84   40   42 2
  85   41   43 1
  86   41   44 1
  87   41  115 1
  88   43   51 am
  89   43  116 1
  90   44   45 1
  91   44  117 1
  92   44  118 1
  93   45   46 1
  94   45  119 1
  95   45  120 1
  96   46   47 1
  97   46  121 1
  98   46  122 1
  99   47   48 1
 100   47  123 1
 101   48   49 1
 102   48   50 2
 103   49  124 1
 104   49  125 1
 105   50  126 1
 106   51   52 1
 107   51   53 2
 108   52   54 1
 109   52   55 1
 110   52  127 1
 111   54   56 am
 112   54  128 1
 113   55  129 1
 114   55  130 1
 115   55  131 1
 116   56   57 1
 117   56   58 2
 118   57   59 1
 119   57   60 1
 120   57  132 1
 121   59   64 1
 122   59  133 1
 123   59  134 1
 124   60   61 am
 125   60  135 1
 126   61   62 1
 127   61   63 2
 128   62  136 1
 129   62  137 1
 130   62  138 1
 131   64   65 1
 132   65   66 1
 133   66   67 1
 134   66  139 1
 135   66  140 1
 136   67   68 1
 137   67   69 1
 138   67  141 1
 139   68   70 2
 140   68   71 1
 141   69  142 1
 142   69  143 1
 143   71  144 1

#	End of record

