#	Name: ASD01208571
#	Creating user name:	WinNT
#	Creation time:	15. 06. 2019 19:10

#	Modifying user name:	WinNT
#	Modification time:	15. 06. 2019 19:10

#	Program:	/corina/corina34_cracker 3.40 0067  02.08.2006

@<TRIPOS>MOLECULE
ASD01208571
  68   70    0    0    0
SMALL
NO_CHARGES


@<TRIPOS>ATOM
   1 N1            -0.4254     1.0387    -0.9861 N.pl3   
   2 C2            -0.4110    -0.2451    -1.4833 C.2     
   3 C3             0.9062    -0.6219    -1.6528 C.2     
   4 C4             1.7021     0.4497    -1.2523 C.2     
   5 C5             0.8629     1.4641    -0.8446 C.2     
   6 C6            -1.5876    -1.0675    -1.7800 C.2     
   7 O7            -1.4477    -2.1942    -2.2186 O.2     
   8 N8            -2.8244    -0.5760    -1.5670 N.am    
   9 C9             1.2867     2.7873    -0.3400 C.ar    
  10 C10            2.6439     3.0979    -0.2442 C.ar    
  11 C11            3.0367     4.3388     0.2286 C.ar    
  12 C12            2.0830     5.2731     0.6068 C.ar    
  13 C13            0.7325     4.9684     0.5137 C.ar    
  14 C14            0.3309     3.7313     0.0363 C.ar    
  15 O15           -0.1974     5.8865     0.8862 O.3     
  16 C16           -1.7793     6.6203     2.5125 C.ar    
  17 C17           -0.8052     5.7263     2.0911 C.ar    
  18 C18           -0.4600     4.6634     2.9197 C.ar    
  19 C19           -1.1076     4.5415     4.1387 C.ar    
  20 C20           -2.0676     5.4722     4.4889 C.ar    
  21 N21           -2.3719     6.4683     3.6799 N.ar    
  22 S22           -2.8965     5.3254     6.0368 S.o2    
  23 O23           -4.1453     5.9706     5.8282 O.2     
  24 O24           -2.8299     3.9387     6.3399 O.2     
  25 C25           -1.8723     6.2792     7.1909 C.3     
  26 O26            4.3582     4.6419     0.3226 O.3     
  27 C27            4.6917     5.9699     0.7316 C.3     
  28 C28            6.0903     6.3243     0.2225 C.3     
  29 C29            4.6684     6.0542     2.2591 C.3     
  30 O30            7.0551     5.4806     0.8544 O.3     
  31 C31            8.4017     5.7306     0.4466 C.3     
  32 C32           -4.0003    -1.3979    -1.8636 C.3     
  33 C33           -5.1995    -0.4901    -2.1440 C.3     
  34 C34           -4.8897     0.4083    -3.3430 C.3     
  35 C35           -4.3101    -2.2964    -0.6645 C.3     
  36 O36           -4.6859    -1.4877     0.4521 O.3     
  37 O37           -5.4619     0.3204    -0.9967 O.3     
  38 H38           -1.2187     1.5556    -0.7756 H       
  39 H39            1.2558    -1.5729    -2.0268 H       
  40 H40            2.7816     0.4799    -1.2600 H       
  41 H41           -2.9359     0.3219    -1.2174 H       
  42 H42            3.3869     2.3712    -0.5380 H       
  43 H43            2.3927     6.2399     0.9751 H       
  44 H44           -0.7205     3.4965    -0.0402 H       
  45 H45           -2.0517     7.4516     1.8791 H       
  46 H46            0.2940     3.9505     2.6201 H       
  47 H47           -0.8654     3.7285     4.8071 H       
  48 H48           -1.8159     7.3149     6.8561 H       
  49 H49           -2.3159     6.2426     8.1859 H       
  50 H50           -0.8696     5.8531     7.2242 H       
  51 H51            3.9662     6.6704     0.3180 H       
  52 H52            6.1317     6.1786    -0.8570 H       
  53 H53            6.3093     7.3659     0.4572 H       
  54 H54            4.9228     7.0672     2.5710 H       
  55 H55            3.6720     5.8018     2.6218 H       
  56 H56            5.3939     5.3537     2.6727 H       
  57 H57            8.4911     5.5726    -0.6282 H       
  58 H58            8.6686     6.7599     0.6859 H       
  59 H59            9.0724     5.0500     0.9709 H       
  60 H60           -3.8001    -2.0162    -2.7387 H       
  61 H61           -6.0744    -1.1016    -2.3646 H       
  62 H62           -4.0148     1.0198    -3.1224 H       
  63 H63           -4.6895    -0.2099    -4.2182 H       
  64 H64           -5.7440     1.0551    -3.5428 H       
  65 H65           -5.1289    -2.9700    -0.9172 H       
  66 H66           -3.4253    -2.8796    -0.4093 H       
  67 H67           -4.8970    -1.9921     1.2497 H       
  68 H68           -6.2112     0.9223    -1.1034 H       
@<TRIPOS>BOND
   1    1    2 1
   2    1    5 1
   3    1   38 1
   4    2    3 2
   5    2    6 1
   6    3    4 1
   7    3   39 1
   8    4    5 2
   9    4   40 1
  10    5    9 1
  11    6    7 2
  12    6    8 am
  13    8   32 1
  14    8   41 1
  15    9   10 ar
  16    9   14 ar
  17   10   11 ar
  18   10   42 1
  19   11   12 ar
  20   11   26 1
  21   12   13 ar
  22   12   43 1
  23   13   14 ar
  24   13   15 1
  25   14   44 1
  26   15   17 1
  27   16   17 ar
  28   16   21 ar
  29   16   45 1
  30   17   18 ar
  31   18   19 ar
  32   18   46 1
  33   19   20 ar
  34   19   47 1
  35   20   21 ar
  36   20   22 1
  37   22   23 2
  38   22   24 2
  39   22   25 1
  40   25   48 1
  41   25   49 1
  42   25   50 1
  43   26   27 1
  44   27   28 1
  45   27   29 1
  46   27   51 1
  47   28   30 1
  48   28   52 1
  49   28   53 1
  50   29   54 1
  51   29   55 1
  52   29   56 1
  53   30   31 1
  54   31   57 1
  55   31   58 1
  56   31   59 1
  57   32   33 1
  58   32   35 1
  59   32   60 1
  60   33   34 1
  61   33   37 1
  62   33   61 1
  63   34   62 1
  64   34   63 1
  65   34   64 1
  66   35   36 1
  67   35   65 1
  68   35   66 1
  69   36   67 1
  70   37   68 1

#	End of record

