#	Name: ASD01912513
#	Creating user name:	WinNT
#	Creation time:	15. 06. 2019 19:59

#	Modifying user name:	WinNT
#	Modification time:	15. 06. 2019 19:59

#	Program:	/corina/corina34_cracker 3.40 0067  02.08.2006

@<TRIPOS>MOLECULE
ASD01912513
  45   48    0    0    0
SMALL
NO_CHARGES


@<TRIPOS>ATOM
   1 N1             0.1481     0.5051     0.2027 N.2     
   2 C2             0.3109    -0.7804     0.3799 C.2     
   3 N3             1.6426    -1.0134     0.4117 N.2     
   4 C4             2.2084     0.1567     0.2503 C.2     
   5 O5             1.2264     1.0551     0.1266 O.3     
   6 C6            -0.7642    -1.7934     0.5202 C.ar    
   7 C7            -2.1015    -1.4050     0.4669 C.ar    
   8 C8            -0.4395    -3.1366     0.6999 C.ar    
   9 C9            -1.4422    -4.0752     0.8295 C.ar    
  10 C10           -2.7706    -3.6841     0.7807 C.ar    
  11 C11           -3.0979    -2.3502     0.5973 C.ar    
  12 C12            3.6885     0.4376     0.2120 C.3     
  13 F13           -3.7495    -4.6065     0.9075 F       
  14 C14            4.0553     1.0640    -1.1365 C.3     
  15 C15            5.5808     1.1350    -1.2722 C.3     
  16 N16            6.1312     1.7540    -0.0668 N.pl3   
  17 C17            5.4661     1.8889     1.1085 C.2     
  18 C18            4.0545     1.4115     1.3401 C.3     
  19 C19            7.3501     2.2944     0.1243 C.2     
  20 N20            7.3896     2.7263     1.3587 N.2     
  21 N21            6.2656     2.4832     1.9412 N.2     
  22 C22            8.4593     2.3841    -0.8919 C.3     
  23 C23            8.0328     3.3111    -2.0319 C.3     
  24 C24            9.7182     2.9419    -0.2248 C.3     
  25 C25            8.7531     0.9904    -1.4506 C.3     
  26 H26           -2.3574    -0.3655     0.3240 H       
  27 H27            0.5956    -3.4424     0.7373 H       
  28 H28           -1.1914    -5.1164     0.9688 H       
  29 H29           -4.1345    -2.0495     0.5599 H       
  30 H30            4.2391    -0.4941     0.3421 H       
  31 H31            3.6471     0.4547    -1.9428 H       
  32 H32            3.6384     2.0695    -1.1950 H       
  33 H33            5.9851     0.1289    -1.3836 H       
  34 H34            5.8427     1.7352    -2.1435 H       
  35 H35            3.3720     2.2614     1.3283 H       
  36 H36            3.9915     0.9016     2.3014 H       
  37 H37            7.7222     4.2721    -1.6219 H       
  38 H38            8.8715     3.4603    -2.7120 H       
  39 H39            7.2010     2.8614    -2.5740 H       
  40 H40           10.0220     2.2815     0.5873 H       
  41 H41           10.5205     3.0068    -0.9598 H       
  42 H42            9.5089     3.9348     0.1732 H       
  43 H43            7.8562     0.5930    -1.9258 H       
  44 H44            9.5554     1.0553    -2.1856 H       
  45 H45            9.0569     0.3300    -0.6384 H       
@<TRIPOS>BOND
   1    1    2 2
   2    1    5 1
   3    2    3 1
   4    2    6 1
   5    3    4 2
   6    4    5 1
   7    4   12 1
   8    6    7 ar
   9    6    8 ar
  10    7   11 ar
  11    7   26 1
  12    8    9 ar
  13    8   27 1
  14    9   10 ar
  15    9   28 1
  16   10   11 ar
  17   10   13 1
  18   11   29 1
  19   12   14 1
  20   12   18 1
  21   12   30 1
  22   14   15 1
  23   14   31 1
  24   14   32 1
  25   15   16 1
  26   15   33 1
  27   15   34 1
  28   16   17 1
  29   16   19 1
  30   17   18 1
  31   17   21 2
  32   18   35 1
  33   18   36 1
  34   19   20 2
  35   19   22 1
  36   20   21 1
  37   22   23 1
  38   22   24 1
  39   22   25 1
  40   23   37 1
  41   23   38 1
  42   23   39 1
  43   24   40 1
  44   24   41 1
  45   24   42 1
  46   25   43 1
  47   25   44 1
  48   25   45 1

#	End of record

