#	Name: ASD03240461
#	Creating user name:	WinNT
#	Creation time:	15. 06. 2019 20:35

#	Modifying user name:	WinNT
#	Modification time:	15. 06. 2019 20:35

#	Program:	/corina/corina34_cracker 3.40 0067  02.08.2006

@<TRIPOS>MOLECULE
ASD03240461
  46   48    0    0    0
SMALL
NO_CHARGES


@<TRIPOS>ATOM
   1 C1             0.0330     1.4783    -0.0440 C.ar    
   2 C2            -0.7178     4.0140     1.5280 C.ar    
   3 C3            -1.4717     2.8755     1.3124 C.ar    
   4 C4            -1.3322     2.1133     0.0198 C.3     
   5 C5            -0.8451     4.7132     2.7135 C.ar    
   6 C6            -1.7271     4.2735     3.6842 C.ar    
   7 C7            -2.4812     3.1343     3.4680 C.ar    
   8 C8            -2.3532     2.4358     2.2822 C.ar    
   9 Br9           -1.9013     5.2293     5.3066 Br      
  10 C10            0.1585     0.1029     0.0161 C.ar    
  11 C11            1.1585     2.2714    -0.1684 C.ar    
  12 C12            2.4105     1.6899    -0.2333 C.ar    
  13 C13            2.5374     0.3124    -0.1732 C.ar    
  14 C14            1.4095    -0.4809    -0.0481 C.ar    
  15 C15           -1.5039     3.0731    -1.1593 C.3     
  16 N16           -1.4875     2.3147    -2.4126 N.am    
  17 C17           -1.6235     2.9560    -3.5902 C.2     
  18 F18            3.7608    -0.2572    -0.2369 F       
  19 O19           -1.7598     4.1633    -3.6123 O.2     
  20 O20           -1.6084     2.2591    -4.7420 O.3     
  21 C21           -1.7601     3.0154    -5.9721 C.3     
  22 C22           -1.7191     2.0745    -7.1486 C.ar    
  23 C23           -2.8882     1.5100    -7.6233 C.ar    
  24 C24           -0.5130     1.7803    -7.7566 C.ar    
  25 C25           -0.4753     0.9172    -8.8357 C.ar    
  26 C26           -1.6437     0.3480    -9.3066 C.ar    
  27 C27           -2.8506     0.6469    -8.7025 C.ar    
  28 H28           -0.0260     4.3547     0.7719 H       
  29 H29           -2.0964     1.3376    -0.0288 H       
  30 H30           -0.2558     5.6024     2.8820 H       
  31 H31           -3.1697     2.7904     4.2258 H       
  32 H32           -2.9423     1.5465     2.1131 H       
  33 H33           -0.7215    -0.5157     0.1136 H       
  34 H34            1.0593     3.3458    -0.2153 H       
  35 H35            3.2896     2.3096    -0.3312 H       
  36 H36            1.5073    -1.5554    -0.0008 H       
  37 H37           -2.4544     3.5982    -1.0648 H       
  38 H38           -0.6880     3.7959    -1.1612 H       
  39 H39           -1.3787     1.3510    -2.3950 H       
  40 H40           -2.7151     3.5407    -5.9602 H       
  41 H41           -0.9488     3.7383    -6.0566 H       
  42 H42           -3.8311     1.7431    -7.1509 H       
  43 H43            0.3999     2.2250    -7.3887 H       
  44 H44            0.4669     0.6879    -9.3112 H       
  45 H45           -1.6143    -0.3260   -10.1500 H       
  46 H46           -3.7634     0.2022    -9.0704 H       
@<TRIPOS>BOND
   1    1   10 ar
   2    1   11 ar
   3    1    4 1
   4    2    3 ar
   5    2    5 ar
   6    2   28 1
   7    3    4 1
   8    3    8 ar
   9    4   15 1
  10    4   29 1
  11    5    6 ar
  12    5   30 1
  13    6    7 ar
  14    6    9 1
  15    7    8 ar
  16    7   31 1
  17    8   32 1
  18   10   14 ar
  19   10   33 1
  20   11   12 ar
  21   11   34 1
  22   12   13 ar
  23   12   35 1
  24   13   14 ar
  25   13   18 1
  26   14   36 1
  27   15   16 1
  28   15   37 1
  29   15   38 1
  30   16   17 am
  31   16   39 1
  32   17   19 2
  33   17   20 1
  34   20   21 1
  35   21   22 1
  36   21   40 1
  37   21   41 1
  38   22   23 ar
  39   22   24 ar
  40   23   27 ar
  41   23   42 1
  42   24   25 ar
  43   24   43 1
  44   25   26 ar
  45   25   44 1
  46   26   27 ar
  47   26   45 1
  48   27   46 1

#	End of record

