#	Name: ASD03740022
#	Creating user name:	WinNT
#	Creation time:	15. 06. 2019 20:46

#	Modifying user name:	WinNT
#	Modification time:	15. 06. 2019 20:46

#	Program:	/corina/corina34_cracker 3.40 0067  02.08.2006

@<TRIPOS>MOLECULE
ASD03740022
  44   46    0    0    0
SMALL
NO_CHARGES


@<TRIPOS>ATOM
   1 C1            -0.0167     1.3784     0.0096 C.ar    
   2 C2             0.0021    -0.0041     0.0020 C.ar    
   3 C3            -1.1841    -0.7122     0.0095 C.ar    
   4 C4            -2.3948    -0.0349     0.0247 C.ar    
   5 C5            -2.4109     1.3523     0.0323 C.ar    
   6 C6            -1.2219     2.0557     0.0305 C.ar    
   7 S7             1.4980     2.2786    -0.0000 S.o2    
   8 N8             1.9043     2.5376    -1.5844 N.am    
   9 O9             1.2097     3.5550     0.5541 O.2     
  10 O10            2.4865     1.4064     0.5303 O.2     
  11 C11            1.5393     3.6065    -2.3385 C.2     
  12 C12            2.0769     3.4377    -3.5776 C.2     
  13 C13            2.7891     2.2304    -3.5750 C.2     
  14 N14            2.6900     1.6958    -2.3818 N.2     
  15 N15            0.7574     4.6794    -1.9204 N.pl3   
  16 O16            3.4710     1.7060    -4.6282 O.3     
  17 C17            4.0954     0.5289    -4.4277 C.2     
  18 C18            4.8539    -0.0992    -5.5245 C.ar    
  19 O19            4.0332    -0.0148    -3.3427 O.2     
  20 O20           -3.5630    -0.7292     0.0317 O.3     
  21 C21            4.2197    -0.9876    -6.4002 C.ar    
  22 C22            4.9389    -1.5720    -7.4259 C.ar    
  23 C23            6.2812    -1.2814    -7.5877 C.ar    
  24 C24            6.9162    -0.4044    -6.7268 C.ar    
  25 C25            6.2115     0.1939    -5.6996 C.ar    
  26 F26            6.8335     1.0505    -4.8602 F       
  27 F27            2.9087    -1.2736    -6.2434 F       
  28 C28            4.2583    -2.5291    -8.3703 C.3     
  29 C29           -4.7711     0.0339     0.0474 C.3     
  30 H30            0.9448    -0.5308    -0.0102 H       
  31 H31           -1.1689    -1.7920     0.0032 H       
  32 H32           -3.3521     1.8818     0.0442 H       
  33 H33           -1.2339     3.1356     0.0364 H       
  34 H34            1.9729     4.1133    -4.4137 H       
  35 H35            0.4191     4.7080    -1.0118 H       
  36 H36            0.5508     5.3986    -2.5377 H       
  37 H37            6.8371    -1.7421    -8.3908 H       
  38 H38            7.9648    -0.1831    -6.8605 H       
  39 H39            3.8496    -1.9760    -9.2160 H       
  40 H40            4.9817    -3.2607    -8.7300 H       
  41 H41            3.4512    -3.0427    -7.8479 H       
  42 H42           -4.7955     0.6572     0.9412 H       
  43 H43           -4.8122     0.6674    -0.8387 H       
  44 H44           -5.6271    -0.6410     0.0515 H       
@<TRIPOS>BOND
   1    1    2 ar
   2    1    7 1
   3    1    6 ar
   4    2    3 ar
   5    2   30 1
   6    3    4 ar
   7    3   31 1
   8    4    5 ar
   9    4   20 1
  10    5    6 ar
  11    5   32 1
  12    6   33 1
  13    7    8 am
  14    7    9 2
  15    7   10 2
  16    8   11 1
  17    8   14 1
  18   11   12 2
  19   11   15 1
  20   12   13 1
  21   12   34 1
  22   13   14 2
  23   13   16 1
  24   15   35 1
  25   15   36 1
  26   16   17 1
  27   17   18 1
  28   17   19 2
  29   18   21 ar
  30   18   25 ar
  31   20   29 1
  32   21   22 ar
  33   21   27 1
  34   22   23 ar
  35   22   28 1
  36   23   24 ar
  37   23   37 1
  38   24   25 ar
  39   24   38 1
  40   25   26 1
  41   28   39 1
  42   28   40 1
  43   28   41 1
  44   29   42 1
  45   29   43 1
  46   29   44 1

#	End of record

