#	Name: ASD01890039
#	Creating user name:	WinNT
#	Creation time:	15. 06. 2019 19:50

#	Modifying user name:	WinNT
#	Modification time:	15. 06. 2019 19:50

#	Program:	/corina/corina34_cracker 3.40 0067  02.08.2006

@<TRIPOS>MOLECULE
ASD01890039
  39   40    0    0    0
SMALL
NO_CHARGES


@<TRIPOS>ATOM
   1 C1            -0.5052     0.0298    -1.4789 C.2     
   2 C2             0.1312     0.3183    -0.1437 C.3     
   3 C3             1.4722    -0.4123    -0.0494 C.3     
   4 C4             2.1911     0.0051     1.2351 C.3     
   5 C5             3.5708    -0.6007     1.2581 C.2     
   6 O6             0.1055    -0.5888    -2.3181 O.2     
   7 O7            -1.7525     0.4553    -1.7338 O.3     
   8 O8             3.9836    -1.2060     0.2914 O.2     
   9 N9             4.3461    -0.4699     2.3528 N.am    
  10 C10            1.2334    -1.9001    -0.0307 C.ar    
  11 C11            1.7745    -2.6992    -1.0205 C.ar    
  12 C12            1.5558    -4.0638    -1.0039 C.ar    
  13 C13            0.7953    -4.6301     0.0036 C.ar    
  14 C14            0.2541    -3.8298     0.9940 C.ar    
  15 C15            0.4782    -2.4660     0.9794 C.ar    
  16 Cl16           0.5198    -6.3439     0.0248 Cl      
  17 C17            5.6698    -0.9306     2.3332 C.ar    
  18 C18            6.3366    -1.1901     3.5288 C.ar    
  19 C19            7.6443    -1.6455     3.5040 C.ar    
  20 C20            8.2860    -1.8414     2.2937 C.ar    
  21 C21            7.6241    -1.5838     1.1065 C.ar    
  22 C22            6.3169    -1.1345     1.1238 C.ar    
  23 Cl23           9.9256    -2.4113     2.2650 Cl      
  24 O24            5.7050    -0.9962     4.7172 O.3     
  25 H25            0.2942     1.3914    -0.0431 H       
  26 H26           -0.5268    -0.0255     0.6543 H       
  27 H27            2.0881    -0.1539    -0.9108 H       
  28 H28            2.2708     1.0916     1.2703 H       
  29 H29            1.6258    -0.3460     2.0984 H       
  30 H30           -2.1183     0.2463    -2.6042 H       
  31 H31            3.9880    -0.0571     3.1542 H       
  32 H32            2.3678    -2.2570    -1.8072 H       
  33 H33            1.9783    -4.6880    -1.7775 H       
  34 H34           -0.3396    -4.2713     1.7807 H       
  35 H35            0.0594    -1.8418     1.7549 H       
  36 H36            8.1634    -1.8475     4.4293 H       
  37 H37            8.1285    -1.7376     0.1640 H       
  38 H38            5.8009    -0.9384     0.1955 H       
  39 H39            5.2312    -1.7740     5.0423 H       
@<TRIPOS>BOND
   1    1    2 1
   2    1    6 2
   3    1    7 1
   4    2    3 1
   5    2   25 1
   6    2   26 1
   7    3    4 1
   8    3   10 1
   9    3   27 1
  10    4    5 1
  11    4   28 1
  12    4   29 1
  13    5    8 2
  14    5    9 am
  15    7   30 1
  16    9   17 1
  17    9   31 1
  18   10   11 ar
  19   10   15 ar
  20   11   12 ar
  21   11   32 1
  22   12   13 ar
  23   12   33 1
  24   13   14 ar
  25   13   16 1
  26   14   15 ar
  27   14   34 1
  28   15   35 1
  29   17   18 ar
  30   17   22 ar
  31   18   19 ar
  32   18   24 1
  33   19   20 ar
  34   19   36 1
  35   20   21 ar
  36   20   23 1
  37   21   22 ar
  38   21   37 1
  39   22   38 1
  40   24   39 1

#	End of record

