#	Name: ASD00311219
#	Creating user name:	WinNT
#	Creation time:	15. 06. 2019 18:34

#	Modifying user name:	WinNT
#	Modification time:	15. 06. 2019 18:34

#	Program:	/corina/corina34_cracker 3.40 0067  02.08.2006

@<TRIPOS>MOLECULE
ASD00311219
  38   41    0    0    0
SMALL
NO_CHARGES


@<TRIPOS>ATOM
   1 C1            -0.0167     1.3825     0.0096 C.2     
   2 C2             0.0021    -0.0041     0.0020 C.2     
   3 C3             1.2609    -0.6816    -0.0132 C.2     
   4 C4             2.4331     0.0598    -0.0200 C.2     
   5 C5             2.3588     1.4691    -0.0117 C.2     
   6 N6             1.1691     2.0871     0.0021 N.am    
   7 C7            -1.3333    -0.5778     0.0117 C.2     
   8 C8            -2.3175     0.3717     0.0262 C.2     
   9 S9            -1.6191     1.9778     0.0351 S.3     
  10 C10           -3.7034     0.0956     0.0379 C.2     
  11 O11           -4.0971    -1.0651     0.0354 O.co2   
  12 O12           -4.5118     1.0169     0.0505 O.co2   
  13 O13            3.3840     2.1295    -0.0172 O.2     
  14 O14            1.3083    -2.0336    -0.0204 O.3     
  15 C15            3.7488    -0.6203    -0.0352 C.ar    
  16 C16            4.5951    -0.4834    -1.1354 C.ar    
  17 C17            5.8195    -1.1194    -1.1438 C.ar    
  18 C18            6.2082    -1.8921    -0.0640 C.ar    
  19 C19            5.3730    -2.0320     1.0300 C.ar    
  20 C20            4.1490    -1.3955     1.0530 C.ar    
  21 C21           -1.5994    -2.0329     0.0056 C.ar    
  22 C22           -2.2165    -2.6371     1.1020 C.ar    
  23 C23           -2.4618    -3.9946     1.0901 C.ar    
  24 C24           -2.0970    -4.7570    -0.0055 C.ar    
  25 C25           -1.4849    -4.1642    -1.0956 C.ar    
  26 C26           -1.2396    -2.8066    -1.0989 C.ar    
  27 H27            1.1415     3.0567     0.0076 H       
  28 H28            2.2049    -2.3957    -0.0307 H       
  29 H29            4.2924     0.1189    -1.9792 H       
  30 H30            6.4757    -1.0142    -1.9951 H       
  31 H31            7.1674    -2.3883    -0.0753 H       
  32 H32            5.6816    -2.6371     1.8697 H       
  33 H33            3.4998    -1.5016     1.9096 H       
  34 H34           -2.5011    -2.0433     1.9581 H       
  35 H35           -2.9392    -4.4634     1.9378 H       
  36 H36           -2.2906    -5.8195    -0.0096 H       
  37 H37           -1.2027    -4.7648    -1.9476 H       
  38 H38           -0.7658    -2.3443    -1.9523 H       
@<TRIPOS>BOND
   1    1    2 2
   2    1    6 1
   3    1    9 1
   4    2    3 1
   5    2    7 1
   6    3    4 2
   7    3   14 1
   8    4    5 1
   9    4   15 1
  10    5    6 am
  11    5   13 2
  12    6   27 1
  13    7    8 2
  14    7   21 1
  15    8    9 1
  16    8   10 1
  17   10   11 ar
  18   10   12 ar
  19   14   28 1
  20   15   16 ar
  21   15   20 ar
  22   16   17 ar
  23   16   29 1
  24   17   18 ar
  25   17   30 1
  26   18   19 ar
  27   18   31 1
  28   19   20 ar
  29   19   32 1
  30   20   33 1
  31   21   22 ar
  32   21   26 ar
  33   22   23 ar
  34   22   34 1
  35   23   24 ar
  36   23   35 1
  37   24   25 ar
  38   24   36 1
  39   25   26 ar
  40   25   37 1
  41   26   38 1

#	End of record

