#	Name: ASD04590154
#	Creating user name:	WinNT
#	Creation time:	15. 06. 2019 20:50

#	Modifying user name:	WinNT
#	Modification time:	15. 06. 2019 20:50

#	Program:	/corina/corina34_cracker 3.40 0067  02.08.2006

@<TRIPOS>MOLECULE
ASD04590154
  39   41    0    0    0
SMALL
NO_CHARGES


@<TRIPOS>ATOM
   1 N1            -0.0153     1.2802     0.0091 N.pl3   
   2 N2             0.0021    -0.0041     0.0020 N.2     
   3 C3             1.2455    -0.4440    -0.0122 C.2     
   4 C4             2.0903     0.6961    -0.0142 C.2     
   5 C5             1.2523     1.7667    -0.0004 C.2     
   6 C6             1.6765    -1.8547    -0.0239 C.2     
   7 N7             0.7571    -2.8402    -0.0209 N.am    
   8 O8             2.8611    -2.1284    -0.0362 O.2     
   9 N9             3.4930     0.7146    -0.0270 N.am    
  10 C10            4.1514     1.8906    -0.0271 C.2     
  11 C11            1.1851    -4.2412    -0.0325 C.3     
  12 C12            1.4398    -4.7342     1.4040 C.3     
  13 O13            3.5296     2.9356    -0.0159 O.2     
  14 C14            5.6264     1.9101    -0.0406 C.ar    
  15 C15            6.3411     1.9132     1.1622 C.ar    
  16 C16            6.3188     1.9198    -1.2564 C.ar    
  17 C17            7.7008     1.9376    -1.2598 C.ar    
  18 C18            8.3993     1.9454    -0.0661 C.ar    
  19 C19            7.7230     1.9310     1.1402 C.ar    
  20 F20            5.6384     1.9113    -2.4235 F       
  21 F21            5.6824     1.8992     2.3416 F       
  22 N22            0.4817    -5.8308     1.6626 N.3     
  23 C23            0.1457    -6.3974     0.3313 C.3     
  24 C24            0.0528    -5.1437    -0.5743 C.3     
  25 H25           -0.8184     1.8242     0.0160 H       
  26 H26            1.5405     2.8076     0.0021 H       
  27 H27           -0.1880    -2.6218    -0.0111 H       
  28 H28            3.9890    -0.1189    -0.0359 H       
  29 H29            2.0847    -4.3563    -0.6371 H       
  30 H30            2.4611    -5.1044     1.4939 H       
  31 H31            1.2732    -3.9212     2.1106 H       
  32 H32            8.2369     1.9451    -2.1974 H       
  33 H33            9.4791     1.9589    -0.0761 H       
  34 H34            8.2762     1.9376     2.0678 H       
  35 H35            0.8889    -6.5329     2.2621 H       
  36 H36            0.9363    -7.0636    -0.0139 H       
  37 H37           -0.8108    -6.9190     0.3655 H       
  38 H38           -0.9159    -4.6570    -0.4611 H       
  39 H39            0.2342    -5.4064    -1.6165 H       
@<TRIPOS>BOND
   1    1    2 1
   2    1    5 1
   3    1   25 1
   4    2    3 2
   5    3    4 1
   6    3    6 1
   7    4    5 2
   8    4    9 1
   9    5   26 1
  10    6    7 am
  11    6    8 2
  12    7   11 1
  13    7   27 1
  14    9   10 am
  15    9   28 1
  16   10   13 2
  17   10   14 1
  18   11   12 1
  19   11   24 1
  20   11   29 1
  21   12   22 1
  22   12   30 1
  23   12   31 1
  24   14   15 ar
  25   14   16 ar
  26   15   21 1
  27   15   19 ar
  28   16   17 ar
  29   16   20 1
  30   17   18 ar
  31   17   32 1
  32   18   19 ar
  33   18   33 1
  34   19   34 1
  35   22   23 1
  36   22   35 1
  37   23   24 1
  38   23   36 1
  39   23   37 1
  40   24   38 1
  41   24   39 1

#	End of record

