#	Name: ASD03092864
#	Creating user name:	WinNT
#	Creation time:	15. 06. 2019 20:33

#	Modifying user name:	WinNT
#	Modification time:	15. 06. 2019 20:33

#	Program:	/corina/corina34_cracker 3.40 0067  02.08.2006

@<TRIPOS>MOLECULE
ASD03092864
  41   44    0    0    0
SMALL
NO_CHARGES


@<TRIPOS>ATOM
   1 F1            -0.5981    -0.0076     0.0147 F       
   2 C2            -0.5384     1.3421     0.0192 C.ar    
   3 C3            -1.7029     2.0868     0.0991 C.ar    
   4 C4            -1.6407     3.4674     0.1035 C.ar    
   5 C5            -0.4163     4.1049     0.0283 C.ar    
   6 C6            -0.3497     5.6104     0.0337 C.3     
   7 N7            -0.2388     6.0893     1.4138 N.pl3   
   8 C8            -0.1623     7.4470     1.6711 C.ar    
   9 N9            -0.0897     8.3137     0.6704 N.ar    
  10 N10           -0.0179     9.5794     0.8659 N.ar    
  11 C11           -0.0108    10.1142     2.0720 C.ar    
  12 Cl12           0.0886    11.8377     2.2545 Cl      
  13 C13           -0.0830     9.3030     3.1941 C.ar    
  14 C14           -0.1668     7.9192     2.9973 C.ar    
  15 C15           -0.2519     6.9875     4.1410 C.2     
  16 O16            0.7405     6.7423     4.8013 O.2     
  17 C17           -1.5334     6.3578     4.4808 C.2     
  18 C18           -2.7454     6.6044     3.9005 C.2     
  19 N19           -3.6952     5.8323     4.4792 N.pl3   
  20 H20           -4.6336     5.8328     4.2337 H       
  21 C21           -3.1405     5.0445     5.4673 C.ar    
  22 C22           -3.6700     4.1002     6.3401 C.ar    
  23 C23           -2.8466     3.4587     7.2418 C.ar    
  24 Cl24          -3.5137     2.2805     8.3283 Cl      
  25 C25           -1.4895     3.7462     7.2881 C.ar    
  26 C26           -0.9473     4.6794     6.4313 C.ar    
  27 C27           -1.7662     5.3291     5.5117 C.ar    
  28 C28            0.7471     3.3623    -0.0515 C.ar    
  29 C29            0.6876     1.9816    -0.0503 C.ar    
  30 H30           -2.6596     1.5890     0.1575 H       
  31 H31           -2.5489     4.0485     0.1655 H       
  32 H32            0.5204     5.9377    -0.5355 H       
  33 H33           -1.2541     6.0157    -0.4199 H       
  34 H34           -0.2189     5.4548     2.1472 H       
  35 H35           -0.0782     9.7252     4.1881 H       
  36 H36           -2.9197     7.3094     3.1011 H       
  37 H37           -4.7247     3.8697     6.3122 H       
  38 H38           -0.8559     3.2367     7.9990 H       
  39 H39            0.1089     4.9018     6.4693 H       
  40 H40            1.7030     3.8614    -0.1106 H       
  41 H41            1.5969     1.4017    -0.1082 H       
@<TRIPOS>BOND
   1    1    2 1
   2    2   29 ar
   3    2    3 ar
   4    3    4 ar
   5    3   30 1
   6    4    5 ar
   7    4   31 1
   8    5    6 1
   9    5   28 ar
  10    6    7 1
  11    6   32 1
  12    6   33 1
  13    7    8 1
  14    7   34 1
  15    8   14 ar
  16    8    9 ar
  17    9   10 ar
  18   10   11 ar
  19   11   12 1
  20   11   13 ar
  21   13   14 ar
  22   13   35 1
  23   14   15 1
  24   15   16 2
  25   15   17 1
  26   17   27 1
  27   17   18 2
  28   18   19 1
  29   18   36 1
  30   19   20 1
  31   19   21 1
  32   21   27 ar
  33   21   22 ar
  34   22   23 ar
  35   22   37 1
  36   23   24 1
  37   23   25 ar
  38   25   26 ar
  39   25   38 1
  40   26   27 ar
  41   26   39 1
  42   28   29 ar
  43   28   40 1
  44   29   41 1

#	End of record

