#	Name: ASD06340018
#	Creating user name:	WinNT
#	Creation time:	15. 06. 2019 21:05

#	Modifying user name:	WinNT
#	Modification time:	15. 06. 2019 21:05

#	Program:	/corina/corina34_cracker 3.40 0067  02.08.2006

@<TRIPOS>MOLECULE
ASD06340018
  39   41    0    0    0
SMALL
NO_CHARGES


@<TRIPOS>ATOM
   1 C1            -0.0162     1.3444     0.0094 C.2     
   2 N2             0.0021    -0.0041     0.0020 N.am    
   3 N3             1.3491    -0.3972    -0.0130 N.am    
   4 C4             2.0900     0.7297    -0.0140 C.2     
   5 N5             1.2553     1.7854    -0.0003 N.am    
   6 C6             1.8550    -1.7721    -0.0247 C.3     
   7 O7            -1.0112     2.0424     0.0182 O.2     
   8 C8             1.6658     3.1917     0.0026 C.3     
   9 C9             2.1310    -2.1936    -1.4450 C.ar    
  10 C10            3.3778    -1.9756    -2.0008 C.ar    
  11 C11            3.6310    -2.3622    -3.3036 C.ar    
  12 C12            2.6375    -2.9673    -4.0505 C.ar    
  13 C13            1.3910    -3.1861    -3.4944 C.ar    
  14 C14            1.1392    -2.8034    -2.1901 C.ar    
  15 O15            3.3042     0.7828    -0.0253 O.2     
  16 C16           -1.1640    -0.8909     0.0088 C.3     
  17 C17           -1.6251    -1.1036     1.4277 C.ar    
  18 C18           -2.5595    -0.2513     1.9859 C.ar    
  19 C19           -1.1179    -2.1542     2.1692 C.ar    
  20 C20           -1.5409    -2.3493     3.4707 C.ar    
  21 C21           -2.4707    -1.4934     4.0309 C.ar    
  22 C22           -2.9824    -0.4463     3.2874 C.ar    
  23 H23            2.7762    -1.8252     0.5556 H       
  24 H24            1.1106    -2.4369     0.4134 H       
  25 H25            1.7772     3.5356     1.0309 H       
  26 H26            2.6171     3.2936    -0.5197 H       
  27 H27            0.9085     3.7923    -0.5014 H       
  28 H28            4.1540    -1.5028    -1.4173 H       
  29 H29            4.6048    -2.1912    -3.7381 H       
  30 H30            2.8351    -3.2687    -5.0686 H       
  31 H31            0.6147    -3.6586    -4.0780 H       
  32 H32            0.1653    -2.9744    -1.7557 H       
  33 H33           -1.9684    -0.4379    -0.5706 H       
  34 H34           -0.8936    -1.8500    -0.4329 H       
  35 H35           -2.9588     0.5671     1.4052 H       
  36 H36           -0.3915    -2.8229     1.7315 H       
  37 H37           -1.1452    -3.1705     4.0497 H       
  38 H38           -2.8014    -1.6460     5.0476 H       
  39 H39           -3.7089     0.2223     3.7250 H       
@<TRIPOS>BOND
   1    1    2 am
   2    1    5 am
   3    1    7 2
   4    2    3 1
   5    2   16 1
   6    3    4 am
   7    3    6 1
   8    4    5 am
   9    4   15 2
  10    5    8 1
  11    6    9 1
  12    6   23 1
  13    6   24 1
  14    8   25 1
  15    8   26 1
  16    8   27 1
  17    9   10 ar
  18    9   14 ar
  19   10   11 ar
  20   10   28 1
  21   11   12 ar
  22   11   29 1
  23   12   13 ar
  24   12   30 1
  25   13   14 ar
  26   13   31 1
  27   14   32 1
  28   16   17 1
  29   16   33 1
  30   16   34 1
  31   17   18 ar
  32   17   19 ar
  33   18   22 ar
  34   18   35 1
  35   19   20 ar
  36   19   36 1
  37   20   21 ar
  38   20   37 1
  39   21   22 ar
  40   21   38 1
  41   22   39 1

#	End of record

