#	Name: ASD03331364
#	Creating user name:	WinNT
#	Creation time:	15. 06. 2019 20:39

#	Modifying user name:	WinNT
#	Modification time:	15. 06. 2019 20:39

#	Program:	/corina/corina34_cracker 3.40 0067  02.08.2006

@<TRIPOS>MOLECULE
ASD03331364
  43   45    0    0    0
SMALL
NO_CHARGES


@<TRIPOS>ATOM
   1 C1             0.0692     1.4538    -0.1989 C.2     
   2 C2             0.1539     0.0955    -0.1285 C.2     
   3 C3             1.4259    -0.6693    -0.3932 C.3     
   4 C4             2.3850     0.2344    -1.1780 C.3     
   5 C5             2.4991     1.5987    -0.4901 C.3     
   6 N6             1.1806     2.2611    -0.5234 N.am    
   7 N7            -1.9329     0.7210     0.3422 N.2     
   8 N8            -1.0672    -0.3755     0.2052 N.pl3   
   9 C9            -1.2478     1.8240     0.1028 C.2     
  10 C10            1.0455     3.5627    -0.8458 C.2     
  11 O11           -0.0626     4.0483    -0.9611 O.2     
  12 O12            2.1383     4.3252    -1.0402 O.3     
  13 C13           -1.7796     3.2083     0.1398 C.ar    
  14 C14           -2.7898     3.5945    -0.7425 C.ar    
  15 C15           -3.2812     4.8858    -0.7031 C.ar    
  16 C16           -2.7732     5.7939     0.2079 C.ar    
  17 C17           -1.7711     5.4160     1.0847 C.ar    
  18 C18           -1.2768     4.1261     1.0591 C.ar    
  19 F19           -3.2860     2.7083    -1.6333 F       
  20 Cl20          -1.1389     6.5632     2.2240 Cl      
  21 C21            1.9202     5.6842    -1.5026 C.3     
  22 C22            1.1621     6.4716    -0.4320 C.3     
  23 C23            3.2693     6.3548    -1.7694 C.3     
  24 C24            1.0994     5.6581    -2.7935 C.3     
  25 H25            1.8846    -0.9553     0.5533 H       
  26 H26            1.2018    -1.5610    -0.9785 H       
  27 H27            3.3689    -0.2327    -1.2207 H       
  28 H28            2.0064     0.3705    -2.1910 H       
  29 H29            2.8123     1.4609     0.5448 H       
  30 H30            3.2299     2.2130    -1.0161 H       
  31 H31           -1.3044    -1.3079     0.3286 H       
  32 H32           -4.0629     5.1862    -1.3851 H       
  33 H33           -3.1597     6.8020     0.2351 H       
  34 H34           -0.4984     3.8313     1.7473 H       
  35 H35            1.7815     6.5606     0.4605 H       
  36 H36            0.9263     7.4660    -0.8111 H       
  37 H37            0.2384     5.9494    -0.1827 H       
  38 H38            3.8093     5.7939    -2.5321 H       
  39 H39            3.1055     7.3750    -2.1165 H       
  40 H40            3.8540     6.3734    -0.8497 H       
  41 H41            0.1383     5.1804    -2.6034 H       
  42 H42            0.9356     6.6783    -3.1406 H       
  43 H43            1.6395     5.0972    -3.5562 H       
@<TRIPOS>BOND
   1    1    2 2
   2    1    6 1
   3    1    9 1
   4    2    3 1
   5    2    8 1
   6    3    4 1
   7    3   25 1
   8    3   26 1
   9    4    5 1
  10    4   27 1
  11    4   28 1
  12    5    6 1
  13    5   29 1
  14    5   30 1
  15    6   10 am
  16    7    8 1
  17    7    9 2
  18    8   31 1
  19    9   13 1
  20   10   11 2
  21   10   12 1
  22   12   21 1
  23   13   14 ar
  24   13   18 ar
  25   14   15 ar
  26   14   19 1
  27   15   16 ar
  28   15   32 1
  29   16   17 ar
  30   16   33 1
  31   17   18 ar
  32   17   20 1
  33   18   34 1
  34   21   22 1
  35   21   24 1
  36   21   23 1
  37   22   35 1
  38   22   36 1
  39   22   37 1
  40   23   38 1
  41   23   39 1
  42   23   40 1
  43   24   41 1
  44   24   42 1
  45   24   43 1

#	End of record

