#	Name: ASD03470007
#	Creating user name:	WinNT
#	Creation time:	15. 06. 2019 20:42

#	Modifying user name:	WinNT
#	Modification time:	15. 06. 2019 20:42

#	Program:	/corina/corina34_cracker 3.40 0067  02.08.2006

@<TRIPOS>MOLECULE
ASD03470007
 160  156    0    0    0
SMALL
NO_CHARGES


@<TRIPOS>ATOM
   1 N1            -0.0066     0.5851    -1.1750 N.am    
   2 C2             1.0477     1.4351    -1.7337 C.3     
   3 C3             0.4236     2.5467    -2.5373 C.2     
   4 O4            -0.7830     2.6216    -2.6339 O.2     
   5 C5             1.8778     2.0325    -0.5957 C.3     
   6 C6             0.9938     2.8865     0.2762 C.2     
   7 O7            -0.1985     2.9156     0.0830 O.2     
   8 O8             1.5311     3.6148     1.2675 O.3     
   9 N9             1.2064     3.4577    -3.1488 N.am    
  10 C10            0.5997     4.5383    -3.9300 C.3     
  11 C11            1.5452     5.7105    -3.9849 C.2     
  12 O12            2.6201     5.6493    -3.4263 O.2     
  13 C13            0.3170     4.0443    -5.3502 C.3     
  14 C14           -0.7375     2.9367    -5.3044 C.3     
  15 C15           -2.0633     3.5150    -4.8055 C.3     
  16 C16           -0.9296     2.3570    -6.7072 C.3     
  17 N17            1.1964     6.8269    -4.6546 N.am    
  18 C18            2.1156     7.9664    -4.7079 C.3     
  19 C19            1.4820     9.0950    -5.5238 C.3     
  20 C20            2.4420    10.2851    -5.5795 C.3     
  21 C21            1.8084    11.4137    -6.3954 C.3     
  22 C22            2.7683    12.6037    -6.4511 C.3     
  23 N23            2.1600    13.6873    -7.2345 N.3     
  24 N24            3.0200   -10.8500     5.2229 N.3     
  25 C25            1.7063   -10.4653     4.6896 C.3     
  26 C26            1.5862    -8.9631     4.6852 C.2     
  27 O27            2.5838    -8.2749     4.7307 O.2     
  28 C28            1.5616   -10.9928     3.2607 C.3     
  29 C29            1.5587   -12.4997     3.2794 C.2     
  30 O30            1.4416   -13.1848     2.1311 O.3     
  31 O31            1.6618   -13.0911     4.3279 O.2     
  32 N32            0.3703    -8.3845     4.6306 N.am    
  33 C33            0.2564    -6.9285     4.5152 C.3     
  34 C34            0.4242    -6.5242     3.0732 C.2     
  35 O35            0.6197    -7.3691     2.2254 O.2     
  36 C36           -1.1203    -6.4835     5.0128 C.3     
  37 C37           -1.2463    -6.7900     6.4829 C.2     
  38 N38           -2.3428    -6.3977     7.1614 N.am    
  39 O39           -0.3611    -7.3896     7.0554 O.2     
  40 N40            0.3571    -5.2237     2.7258 N.am    
  41 C41            0.4102    -4.8393     1.3131 C.3     
  42 C42           -0.2077    -3.4757     1.1400 C.2     
  43 O43           -0.6204    -2.8699     2.1062 O.2     
  44 C44            1.8677    -4.8013     0.8493 C.3     
  45 C45            2.6797    -3.9102     1.7913 C.3     
  46 C46            4.1655    -4.0210     1.4438 C.3     
  47 C47            2.2265    -2.4572     1.6357 C.3     
  48 N48           -0.3016    -2.9294    -0.0885 N.am    
  49 C49           -0.8067    -1.5633    -0.2460 C.3     
  50 C50            0.2390    -0.7162    -0.9243 C.2     
  51 O51            1.3015    -1.2054    -1.2446 O.2     
  52 C52           -2.0773    -1.5844    -1.0980 C.3     
  53 C53           -3.1752    -2.2910    -0.3454 C.2     
  54 O54           -2.9449    -2.7922     0.7296 O.2     
  55 O55           -4.4089    -2.3635    -0.8692 O.3     
  56 H56           -0.8802     0.9598    -0.9817 H       
  57 H57            1.6922     0.8379    -2.3788 H       
  58 H58            2.3085     1.2282     0.0008 H       
  59 H59            2.6779     2.6445    -1.0121 H       
  60 H60            0.9241     4.1470     1.8000 H       
  61 H61            2.1715     3.3978    -3.0715 H       
  62 H62           -0.3342     4.8465    -3.4599 H       
  63 H63           -0.0516     4.8720    -5.9562 H       
  64 H64            1.2353     3.6537    -5.7886 H       
  65 H65           -0.4074     2.1485    -4.6276 H       
  66 H66           -2.3934     4.3032    -5.4823 H       
  67 H67           -2.8145     2.7259    -4.7729 H       
  68 H68           -1.9264     3.9279    -3.8061 H       
  69 H69            0.0149     1.9450    -7.0626 H       
  70 H70           -1.6809     1.5680    -6.6746 H       
  71 H71           -1.2597     3.1452    -7.3839 H       
  72 H72            0.3368     6.8759    -5.1013 H       
  73 H73            2.3170     8.3184    -3.6961 H       
  74 H74            3.0495     7.6583    -5.1780 H       
  75 H75            1.2806     8.7430    -6.5356 H       
  76 H76            0.5482     9.4032    -5.0537 H       
  77 H77            2.6434    10.6371    -4.5677 H       
  78 H78            3.3758     9.9769    -6.0496 H       
  79 H79            1.6069    11.0617    -7.4072 H       
  80 H80            0.8745    11.7218    -5.9253 H       
  81 H81            2.9697    12.9557    -5.4394 H       
  82 H82            3.7022    12.2956    -6.9212 H       
  83 H83            1.2616    13.9470    -6.8557 H       
  84 H84            2.7750    14.4855    -7.2861 H       
  85 H85            3.7649   -10.4675     4.6599 H       
  86 H86            3.1150   -10.5692     6.1874 H       
  87 H87            0.9216   -10.8907     5.3152 H       
  88 H88            0.6256   -10.6329     2.8336 H       
  89 H89            2.3967   -10.6385     2.6564 H       
  90 H90            1.4447   -14.1498     2.1934 H       
  91 H91           -0.4295    -8.9321     4.6678 H       
  92 H92            1.0312    -6.4546     5.1180 H       
  93 H93           -1.2349    -5.4113     4.8540 H       
  94 H94           -1.8954    -7.0172     4.4626 H       
  95 H95           -3.0508    -5.9182     6.7035 H       
  96 H96           -2.4239    -6.5950     8.1077 H       
  97 H97            0.2737    -4.5423     3.4110 H       
  98 H98           -0.1418    -5.5665     0.7177 H       
  99 H99            2.2787    -5.8108     0.8598 H       
 100 H100           1.9166    -4.3997    -0.1629 H       
 101 H101           2.5224    -4.2315     2.8209 H       
 102 H102           4.3228    -3.6997     0.4141 H       
 103 H103           4.7440    -3.3862     2.1149 H       
 104 H104           4.4884    -5.0562     1.5546 H       
 105 H105           2.1640    -2.2075     0.5765 H       
 106 H106           1.2472    -2.3306     2.0972 H       
 107 H107           2.9455    -1.7982     2.1224 H       
 108 H108          -0.0347    -3.4408    -0.8683 H       
 109 H109          -1.0336    -1.1445     0.7344 H       
 110 H110          -2.3858    -0.5619    -1.3157 H       
 111 H111          -1.8799    -2.1109    -2.0318 H       
 112 H112          -5.0799    -2.8268    -0.3495 H       
 113 C113          10.6865    21.3295    13.1257 C.2     
 114 O114          11.7284    21.9502    13.1191 O.2     
 115 N115          10.7047    19.9819    13.1183 N.am    
 116 H116           9.7440    21.8567    13.1421 H       
 117 H117          11.5512    19.5084    13.1077 H       
 118 H118           9.8714    19.4855    13.1236 H       
 119 N119          17.7280    28.7967    19.0796 N.3     
 120 C120          17.7479    27.3278    19.0716 C.3     
 121 H121          18.6649    29.1710    19.0727 H       
 122 H122          17.1896    29.1552    18.3053 H       
 123 H123          16.7284    26.9502    19.1501 H       
 124 H124          18.1952    26.9756    18.1421 H       
 125 H125          18.3349    26.9678    19.9165 H       
 126 C126          26.8345    39.4932    27.1271 C.3     
 127 C127          25.6591    34.9633    25.8133 C.3     
 128 C128          26.8552    37.9633    27.1187 C.3     
 129 C129          25.4198    37.4338    27.1296 C.3     
 130 C130          24.6742    34.5835    26.9234 C.3     
 131 C131          25.4375    35.9098    26.9955 C.3     
 132 C132          24.1547    34.9680    25.5429 C.3     
 133 C133          24.7429    37.8221    28.4455 C.3     
 134 C134          25.7798    34.7710    27.9560 C.3     
 135 H135          27.8571    39.8705    27.1194 H       
 136 H136          26.3073    39.8543    26.2440 H       
 137 H137          26.3243    39.8447    28.0239 H       
 138 H138          26.5310    34.7161    25.2076 H       
 139 H139          27.3654    37.6118    26.2219 H       
 140 H140          27.3824    37.6023    28.0018 H       
 141 H141          24.8670    37.8655    26.2953 H       
 142 H142          23.6649    35.9365    25.4416 H       
 143 H143          23.7539    34.1710    24.9165 H       
 144 H144          23.7203    37.4449    28.4533 H       
 145 H145          25.2958    37.3904    29.2798 H       
 146 H146          24.7303    38.9079    28.5410 H       
 147 H147          25.4808    34.8849    28.9979 H       
 148 H148          26.7169    34.2390    27.7916 H       
 149 C149          33.7996    46.0779    34.2864 C.2     
 150 O150          33.8160    44.8705    34.2798 O.2     
 151 H151          34.7275    46.6306    34.2805 H       
 152 H152          32.8571    46.6052    34.2938 H       
 153 C153          40.2546    52.7205    40.1768 C.3     
 154 H154          40.2694    51.6306    40.1708 H       
 155 H155          41.2772    53.0978    40.1691 H       
 156 H156          39.7275    53.0816    39.2938 H       
 157 H157          39.7445    53.0720    41.0736 H       
 158 O158          46.2772    59.0647    46.0798 O.3     
 159 H159          46.2904    58.0978    46.0745 H       
 160 H160          47.1552    59.4700    46.0736 H       
@<TRIPOS>BOND
   1    1   50 am
   2    1    2 1
   3    1   56 1
   4    2    5 1
   5    2    3 1
   6    2   57 1
   7    3    9 am
   8    3    4 2
   9    5    6 1
  10    5   58 1
  11    5   59 1
  12    6    8 1
  13    6    7 2
  14    8   60 1
  15    9   10 1
  16    9   61 1
  17   10   11 1
  18   10   13 1
  19   10   62 1
  20   11   17 am
  21   11   12 2
  22   13   14 1
  23   13   63 1
  24   13   64 1
  25   14   15 1
  26   14   16 1
  27   14   65 1
  28   15   66 1
  29   15   67 1
  30   15   68 1
  31   16   69 1
  32   16   70 1
  33   16   71 1
  34   17   18 1
  35   17   72 1
  36   18   19 1
  37   18   73 1
  38   18   74 1
  39   19   20 1
  40   19   75 1
  41   19   76 1
  42   20   21 1
  43   20   77 1
  44   20   78 1
  45   21   22 1
  46   21   79 1
  47   21   80 1
  48   22   23 1
  49   22   81 1
  50   22   82 1
  51   23   83 1
  52   23   84 1
  53   24   25 1
  54   24   85 1
  55   24   86 1
  56   25   26 1
  57   25   28 1
  58   25   87 1
  59   26   27 2
  60   26   32 am
  61   28   29 1
  62   28   88 1
  63   28   89 1
  64   29   30 1
  65   29   31 2
  66   30   90 1
  67   32   33 1
  68   32   91 1
  69   33   34 1
  70   33   36 1
  71   33   92 1
  72   34   40 am
  73   34   35 2
  74   36   37 1
  75   36   93 1
  76   36   94 1
  77   37   38 am
  78   37   39 2
  79   38   95 1
  80   38   96 1
  81   40   41 1
  82   40   97 1
  83   41   44 1
  84   41   42 1
  85   41   98 1
  86   42   48 am
  87   42   43 2
  88   44   45 1
  89   44   99 1
  90   44  100 1
  91   45   46 1
  92   45   47 1
  93   45  101 1
  94   46  102 1
  95   46  103 1
  96   46  104 1
  97   47  105 1
  98   47  106 1
  99   47  107 1
 100   48   49 1
 101   48  108 1
 102   49   52 1
 103   49   50 1
 104   49  109 1
 105   50   51 2
 106   52   53 1
 107   52  110 1
 108   52  111 1
 109   53   54 2
 110   53   55 1
 111   55  112 1
 112  113  115 am
 113  113  114 2
 114  113  116 1
 115  115  117 1
 116  115  118 1
 117  119  120 1
 118  119  121 1
 119  119  122 1
 120  120  123 1
 121  120  124 1
 122  120  125 1
 123  126  128 1
 124  126  135 1
 125  126  136 1
 126  126  137 1
 127  127  130 1
 128  127  131 1
 129  127  132 1
 130  127  138 1
 131  128  129 1
 132  128  139 1
 133  128  140 1
 134  129  131 1
 135  129  133 1
 136  129  141 1
 137  130  131 1
 138  130  134 1
 139  130  132 1
 140  131  134 1
 141  132  142 1
 142  132  143 1
 143  133  144 1
 144  133  145 1
 145  133  146 1
 146  134  147 1
 147  134  148 1
 148  149  150 2
 149  149  151 1
 150  149  152 1
 151  153  154 1
 152  153  155 1
 153  153  156 1
 154  153  157 1
 155  158  159 1
 156  158  160 1

#	End of record

