#	Name: ASD01418039
#	Creating user name:	WinNT
#	Creation time:	15. 06. 2019 19:20

#	Modifying user name:	WinNT
#	Modification time:	15. 06. 2019 19:20

#	Program:	/corina/corina34_cracker 3.40 0067  02.08.2006

@<TRIPOS>MOLECULE
ASD01418039
  62   65    0    0    0
SMALL
NO_CHARGES


@<TRIPOS>ATOM
   1 N1            -0.0776     1.3699     0.0604 N.pl3   
   2 C2            -0.0431    -0.0051     0.0323 C.2     
   3 C3            -1.2164    -0.8912     0.1551 C.ar    
   4 C4            -2.0920    -1.0657    -0.9378 C.ar    
   5 C5            -1.8417    -0.3673    -2.2049 C.2     
   6 C6            -2.7183    -0.6380    -3.4004 C.3     
   7 C7            -1.4641    -1.5661     1.3499 C.ar    
   8 C8            -2.5616    -2.3938     1.4608 C.ar    
   9 C9            -3.4279    -2.5629     0.3890 C.ar    
  10 C10           -3.1991    -1.9086    -0.8053 C.ar    
  11 C11            1.2077     1.8494    -0.0835 C.ar    
  12 C12            2.0605     0.7325    -0.2040 C.ar    
  13 C13            1.2416    -0.4189    -0.1271 C.2     
  14 C14            1.7426     3.1275    -0.1253 C.ar    
  15 C15            3.1170     3.2958    -0.2858 C.ar    
  16 C16            3.9573     2.1789    -0.4053 C.ar    
  17 C17            3.4411     0.9201    -0.3639 C.ar    
  18 C18            1.7104    -1.8488    -0.2068 C.3     
  19 C19            2.3705    -2.0941    -1.5651 C.3     
  20 C20            2.7234    -2.1164     0.9082 C.3     
  21 C21            3.1994    -3.5682     0.8272 C.3     
  22 C22            3.8595    -3.8135    -0.5311 C.3     
  23 C23            2.8465    -3.5460    -1.6461 C.3     
  24 F24           -4.4986    -3.3773     0.5136 F       
  25 C25            3.6900     4.6537    -0.3308 C.2     
  26 O26            2.9645     5.6230    -0.2279 O.2     
  27 O27            5.0183     4.8198    -0.4859 O.3     
  28 O28           -0.9293     0.4274    -2.2894 O.2     
  29 C29            5.5123     6.1847    -0.5213 C.3     
  30 C30            5.1605     6.8886     0.7908 C.3     
  31 C31            7.0315     6.1727    -0.7021 C.3     
  32 C32            4.8655     6.9310    -1.6898 C.3     
  33 H33           -0.8750     1.9130     0.1606 H       
  34 H34           -3.4772    -1.3742    -3.1353 H       
  35 H35           -3.2030     0.2871    -3.7124 H       
  36 H36           -2.1089    -1.0227    -4.2182 H       
  37 H37           -0.7957    -1.4408     2.1890 H       
  38 H38           -2.7484    -2.9148     2.3882 H       
  39 H39           -3.8772    -2.0447    -1.6348 H       
  40 H40            1.0975     3.9888    -0.0342 H       
  41 H41            5.0209     2.3188    -0.5301 H       
  42 H42            4.0948     0.0654    -0.4565 H       
  43 H43            0.8577    -2.5178    -0.0912 H       
  44 H44            1.6489    -1.9036    -2.3595 H       
  45 H45            3.2233    -1.4252    -1.6808 H       
  46 H46            3.5761    -1.4474     0.7925 H       
  47 H47            2.2531    -1.9416     1.8759 H       
  48 H48            3.9210    -3.7588     1.6216 H       
  49 H49            2.3466    -4.2371     0.9429 H       
  50 H50            4.7123    -3.1445    -0.6467 H       
  51 H51            4.1986    -4.8478    -0.5887 H       
  52 H52            1.9938    -4.2149    -1.5305 H       
  53 H53            3.3168    -3.7207    -2.6138 H       
  54 H54            5.6213     6.3569     1.6233 H       
  55 H55            5.5313     7.9132     0.7642 H       
  56 H56            4.0781     6.8972     0.9196 H       
  57 H57            7.2822     5.6712    -1.6369 H       
  58 H58            7.4024     7.1973    -0.7287 H       
  59 H59            7.4924     5.6410     0.1303 H       
  60 H60            3.7832     6.9396    -1.5610 H       
  61 H61            5.2363     7.9556    -1.7164 H       
  62 H62            5.1162     6.4295    -2.6246 H       
@<TRIPOS>BOND
   1    1    2 1
   2    1   11 1
   3    1   33 1
   4    2    3 1
   5    2   13 2
   6    3    4 ar
   7    3    7 ar
   8    4    5 1
   9    4   10 ar
  10    5    6 1
  11    5   28 2
  12    6   34 1
  13    6   35 1
  14    6   36 1
  15    7    8 ar
  16    7   37 1
  17    8    9 ar
  18    8   38 1
  19    9   10 ar
  20    9   24 1
  21   10   39 1
  22   11   12 ar
  23   11   14 ar
  24   12   13 1
  25   12   17 ar
  26   13   18 1
  27   14   15 ar
  28   14   40 1
  29   15   16 ar
  30   15   25 1
  31   16   17 ar
  32   16   41 1
  33   17   42 1
  34   18   19 1
  35   18   20 1
  36   18   43 1
  37   19   23 1
  38   19   44 1
  39   19   45 1
  40   20   21 1
  41   20   46 1
  42   20   47 1
  43   21   22 1
  44   21   48 1
  45   21   49 1
  46   22   23 1
  47   22   50 1
  48   22   51 1
  49   23   52 1
  50   23   53 1
  51   25   26 2
  52   25   27 1
  53   27   29 1
  54   29   30 1
  55   29   31 1
  56   29   32 1
  57   30   54 1
  58   30   55 1
  59   30   56 1
  60   31   57 1
  61   31   58 1
  62   31   59 1
  63   32   60 1
  64   32   61 1
  65   32   62 1

#	End of record

