#	Name: ASD03331854
#	Creating user name:	WinNT
#	Creation time:	15. 06. 2019 20:40

#	Modifying user name:	WinNT
#	Modification time:	15. 06. 2019 20:40

#	Program:	/corina/corina34_cracker 3.40 0067  02.08.2006

@<TRIPOS>MOLECULE
ASD03331854
  48   51    0    0    0
SMALL
NO_CHARGES


@<TRIPOS>ATOM
   1 C1             8.3975    -0.3469     1.1506 C.ar    
   2 C2             8.8957     0.0871     2.3664 C.ar    
   3 C3             8.3562     1.2046     2.9788 C.ar    
   4 C4             7.3183     1.8895     2.3778 C.ar    
   5 C5             6.8165     1.4560     1.1577 C.ar    
   6 C6             7.3599     0.3346     0.5451 C.ar    
   7 N7             5.7642     2.1481     0.5466 N.am    
   8 C8             5.6912     3.4900     0.6484 C.2     
   9 N9             4.7315     4.1649    -0.0148 N.am    
  10 O10            6.4911     4.0918     1.3387 O.2     
  11 C11            4.5950     5.5460     0.1660 C.ar    
  12 C12            3.1937     7.4897     0.3389 C.ar    
  13 C13            3.3326     6.1261     0.1606 C.ar    
  14 C14            5.7194     6.3350     0.3565 C.ar    
  15 C15            5.5786     7.7086     0.5365 C.ar    
  16 C16            4.3081     8.2828     0.5242 C.ar    
  17 C17            6.7768     8.5585     0.7411 C.ar    
  18 N18            7.9762     7.9936     0.7500 N.ar    
  19 C19            9.0689     8.7192     0.9298 C.ar    
  20 C20            8.9520    10.0845     1.1104 C.ar    
  21 C21            7.6754    10.6518     1.0963 C.ar    
  22 N22            6.6223     9.8648     0.9053 N.ar    
  23 N23            7.5105    12.0160     1.2737 N.3     
  24 C24            6.0845    12.3870     1.2215 C.3     
  25 C25            5.7507    13.1074     2.5447 C.3     
  26 C26            7.1370    13.6069     3.0301 C.3     
  27 C27            8.0630    12.4518     2.5739 C.3     
  28 Cl28          10.1995    -0.7722     3.1251 Cl      
  29 H29            8.8232    -1.2168     0.6725 H       
  30 H30            8.7468     1.5413     3.9277 H       
  31 H31            6.8971     2.7611     2.8565 H       
  32 H32            6.9716    -0.0044    -0.4039 H       
  33 H33            5.0877     1.6618     0.0499 H       
  34 H34            4.1354     3.6934    -0.6175 H       
  35 H35            2.2102     7.9359     0.3335 H       
  36 H36            2.4575     5.5099     0.0163 H       
  37 H37            6.7013     5.8855     0.3655 H       
  38 H38            4.1957     9.3480     0.6626 H       
  39 H39           10.0413     8.2492     0.9356 H       
  40 H40            9.8277    10.6988     1.2594 H       
  41 H41            5.9060    13.0562     0.3797 H       
  42 H42            5.4716    11.4911     1.1222 H       
  43 H43            5.0789    13.9473     2.3676 H       
  44 H44            5.3183    12.4117     3.2639 H       
  45 H45            7.4087    14.5418     2.5400 H       
  46 H46            7.1549    13.7166     4.1144 H       
  47 H47            8.0313    11.6334     3.2932 H       
  48 H48            9.0849    12.8107     2.4509 H       
@<TRIPOS>BOND
   1    1    2 ar
   2    1    6 ar
   3    1   29 1
   4    2    3 ar
   5    2   28 1
   6    3    4 ar
   7    3   30 1
   8    4    5 ar
   9    4   31 1
  10    5    6 ar
  11    5    7 1
  12    6   32 1
  13    7    8 am
  14    7   33 1
  15    8    9 am
  16    8   10 2
  17    9   11 1
  18    9   34 1
  19   11   14 ar
  20   11   13 ar
  21   12   13 ar
  22   12   16 ar
  23   12   35 1
  24   13   36 1
  25   14   15 ar
  26   14   37 1
  27   15   16 ar
  28   15   17 1
  29   16   38 1
  30   17   18 ar
  31   17   22 ar
  32   18   19 ar
  33   19   20 ar
  34   19   39 1
  35   20   21 ar
  36   20   40 1
  37   21   22 ar
  38   21   23 1
  39   23   24 1
  40   23   27 1
  41   24   25 1
  42   24   41 1
  43   24   42 1
  44   25   26 1
  45   25   43 1
  46   25   44 1
  47   26   27 1
  48   26   45 1
  49   26   46 1
  50   27   47 1
  51   27   48 1

#	End of record

