#	Name: ASD02038348
#	Creating user name:	WinNT
#	Creation time:	15. 06. 2019 20:16

#	Modifying user name:	WinNT
#	Modification time:	15. 06. 2019 20:16

#	Program:	/corina/corina34_cracker 3.40 0067  02.08.2006

@<TRIPOS>MOLECULE
ASD02038348
  46   47    0    0    0
SMALL
NO_CHARGES


@<TRIPOS>ATOM
   1 N1            -0.0230     1.6541     0.0111 N.am    
   2 C2             9.3223     5.2797     1.5027 C.3     
   3 C3            10.3668     4.8095     2.5170 C.3     
   4 N4            11.5794     5.6203     2.3808 N.pl3   
   5 N5             8.1098     4.4689     1.6389 N.am    
   6 C6             7.0484     4.7048     0.8425 C.2     
   7 C7             5.8011     3.8708     0.9826 C.3     
   8 O8             7.0971     5.5883     0.0131 O.2     
   9 O9             4.8255     4.3100     0.0353 O.3     
  10 C10            3.6327     3.6568     0.0295 C.ar    
  11 C11            2.6412     4.0323    -0.8648 C.ar    
  12 C12            1.4297     3.3692    -0.8716 C.ar    
  13 C13            1.2044     2.3262     0.0171 C.ar    
  14 C14            2.1977     1.9509     0.9120 C.ar    
  15 C15            3.4104     2.6117     0.9139 C.ar    
  16 C16           12.6804     5.3756     3.2070 C.ar    
  17 C17           13.8304     6.1437     3.0786 C.ar    
  18 C18           14.9178     5.9000     3.8973 C.ar    
  19 C19           14.8597     4.8890     4.8452 C.ar    
  20 C20           13.7142     4.1232     4.9730 C.ar    
  21 C21           12.6235     4.3681     4.1608 C.ar    
  22 F22           16.0372     6.6463     3.7736 F       
  23 F23           15.9228     4.6514     5.6443 F       
  24 S24           -1.1281     1.9376     1.2113 S.o2    
  25 O25           -2.2336     1.1117     0.8720 O.2     
  26 O26           -0.4003     1.7300     2.4140 O.2     
  27 C27           -1.5609     3.6892     1.0235 C.3     
  28 H28           -0.2280     1.0251    -0.6983 H       
  29 H29            9.0820     6.3267     1.6875 H       
  30 H30            9.7207     5.1709     0.4940 H       
  31 H31            9.9685     4.9183     3.5258 H       
  32 H32           10.6072     3.7625     2.3323 H       
  33 H33           11.6184     6.3269     1.7174 H       
  34 H34            8.0708     3.7623     2.3023 H       
  35 H35            6.0414     2.8238     0.7978 H       
  36 H36            5.4027     3.9796     1.9914 H       
  37 H37            2.8165     4.8434    -1.5559 H       
  38 H38            0.6575     3.6622    -1.5675 H       
  39 H39            2.0233     1.1399     1.6035 H       
  40 H40            4.1832     2.3197     1.6096 H       
  41 H41           13.8754     6.9303     2.3399 H       
  42 H42           13.6711     3.3363     5.7115 H       
  43 H43           11.7300     3.7697     4.2616 H       
  44 H44           -1.9006     3.8723     0.0041 H       
  45 H45           -2.3571     3.9438     1.7231 H       
  46 H46           -0.6850     4.3041     1.2306 H       
@<TRIPOS>BOND
   1    1   24 am
   2    1   13 1
   3    1   28 1
   4    2    3 1
   5    2    5 1
   6    2   29 1
   7    2   30 1
   8    3    4 1
   9    3   31 1
  10    3   32 1
  11    4   16 1
  12    4   33 1
  13    5    6 am
  14    5   34 1
  15    6    8 2
  16    6    7 1
  17    7    9 1
  18    7   35 1
  19    7   36 1
  20    9   10 1
  21   10   11 ar
  22   10   15 ar
  23   11   12 ar
  24   11   37 1
  25   12   13 ar
  26   12   38 1
  27   13   14 ar
  28   14   15 ar
  29   14   39 1
  30   15   40 1
  31   16   17 ar
  32   16   21 ar
  33   17   18 ar
  34   17   41 1
  35   18   19 ar
  36   18   22 1
  37   19   20 ar
  38   19   23 1
  39   20   21 ar
  40   20   42 1
  41   21   43 1
  42   24   25 2
  43   24   26 2
  44   24   27 1
  45   27   44 1
  46   27   45 1
  47   27   46 1

#	End of record

