#	Name: ASD05872018
#	Creating user name:	WinNT
#	Creation time:	15. 06. 2019 21:04

#	Modifying user name:	WinNT
#	Modification time:	15. 06. 2019 21:04

#	Program:	/corina/corina34_cracker 3.40 0067  02.08.2006

@<TRIPOS>MOLECULE
ASD05872018
  36   37    0    0    0
SMALL
NO_CHARGES


@<TRIPOS>ATOM
   1 C1            -0.0168     1.3909     0.0097 C.ar    
   2 C2             0.0021    -0.0041     0.0020 C.ar    
   3 C3            -1.1845    -0.7121     0.0091 C.ar    
   4 C4            -2.3952    -0.0265     0.0243 C.ar    
   5 C5            -2.4171     1.3754     0.0325 C.ar    
   6 C6            -1.2170     2.0760     0.0306 C.ar    
   7 C7            -3.8128    -0.4423     0.0357 C.2     
   8 C8            -4.5353     0.7114     0.0493 C.2     
   9 O9            -3.7097     1.7642     0.0473 O.3     
  10 C10           -6.0401     0.7908     0.0635 C.3     
  11 C11           -4.9228    -5.5348    -2.7672 C.2     
  12 O12            1.1896    -0.6677    -0.0129 O.3     
  13 S13            1.7432    -0.9772     1.3707 S.o2    
  14 O14            3.1393    -1.3444     1.1913 O.co2   
  15 O15            1.5947     0.2341     2.1624 O.co2   
  16 O16            0.9533    -2.0770     1.9021 O.co2   
  17 O17            1.1546     2.0818     0.0022 O.3     
  18 C18            1.0667     3.5081     0.0107 C.3     
  19 C19           -4.3345    -1.8156     0.0325 C.2     
  20 O20           -4.5400    -2.3902     1.0840 O.2     
  21 O21           -4.5853    -2.4387    -1.1365 O.3     
  22 C22           -5.0994    -3.7947    -1.0636 C.3     
  23 C23           -5.3176    -4.3247    -2.4574 C.2     
  24 H24           -1.1723    -1.7920     0.0025 H       
  25 H25           -1.2222     3.1560     0.0368 H       
  26 H26           -6.3935     0.8038     1.0946 H       
  27 H27           -6.3607     1.7018    -0.4419 H       
  28 H28           -6.4546    -0.0757    -0.4517 H       
  29 H29           -5.0791    -5.9146    -3.7661 H       
  30 H30           -4.4409    -6.1525    -2.0238 H       
  31 H31            2.0700     3.9340     0.0034 H       
  32 H32            0.5230     3.8439    -0.8723 H       
  33 H33            0.5400     3.8343     0.9075 H       
  34 H34           -4.3816    -4.4279    -0.5423 H       
  35 H35           -6.0454    -3.7960    -0.5222 H       
  36 H36           -5.7995    -3.7070    -3.2007 H       
@<TRIPOS>BOND
   1    1    2 ar
   2    1   17 1
   3    1    6 ar
   4    2    3 ar
   5    2   12 1
   6    3    4 ar
   7    3   24 1
   8    4    5 ar
   9    4    7 1
  10    5    6 ar
  11    5    9 1
  12    6   25 1
  13    7    8 2
  14    7   19 1
  15    8    9 1
  16    8   10 1
  17   10   26 1
  18   10   27 1
  19   10   28 1
  20   11   23 2
  21   11   29 1
  22   11   30 1
  23   12   13 1
  24   13   14 ar
  25   13   15 ar
  26   13   16 ar
  27   17   18 1
  28   18   31 1
  29   18   32 1
  30   18   33 1
  31   19   20 2
  32   19   21 1
  33   21   22 1
  34   22   23 1
  35   22   34 1
  36   22   35 1
  37   23   36 1

#	End of record

