#	Name: ASD01148310
#	Creating user name:	WinNT
#	Creation time:	15. 06. 2019 19:02

#	Modifying user name:	WinNT
#	Modification time:	15. 06. 2019 19:02

#	Program:	/corina/corina34_cracker 3.40 0067  02.08.2006

@<TRIPOS>MOLECULE
ASD01148310
  58   61    0    0    0
SMALL
NO_CHARGES


@<TRIPOS>ATOM
   1 C1            -0.0167     1.3781     0.0096 C.ar    
   2 C2             0.0021    -0.0041     0.0020 C.ar    
   3 C3            -1.1855    -0.7115     0.0095 C.ar    
   4 C4            -2.3919    -0.0366     0.0251 C.ar    
   5 C5            -2.4106     1.3455     0.0336 C.ar    
   6 C6            -1.2230     2.0529     0.0305 C.ar    
   7 C7            -3.7258     2.0812     0.0501 C.3     
   8 O8            -4.7306     1.3264     0.7574 O.3     
   9 C9            -3.6320     3.3642     0.9100 C.3     
  10 C10           -4.1231     2.8897     2.2645 C.2     
  11 N11           -4.7174     1.7550     2.1047 N.2     
  12 C12           -3.9506     3.6028     3.5454 C.ar    
  13 C13           -4.4546     3.0507     4.7258 C.ar    
  14 C14           -3.2783     4.8272     3.5784 C.ar    
  15 C15           -3.1171     5.4918     4.7730 C.ar    
  16 C16           -3.6256     4.9423     5.9523 C.ar    
  17 C17           -4.2932     3.7156     5.9203 C.ar    
  18 C18           -3.4521     5.6558     7.2349 C.2     
  19 O19           -2.8668     6.7208     7.2636 O.2     
  20 N20           -3.9427     5.1256     8.3728 N.am    
  21 C21           -4.1857     2.4068    -1.3724 C.3     
  22 F22           -4.3278     1.2202    -2.0997 F       
  23 F23           -5.4144     3.0740    -1.3239 F       
  24 F24           -3.2356     3.2240    -1.9941 F       
  25 N25           -3.7782     5.8020     9.5886 N.pl3   
  26 C26           -4.5917     6.9837     9.8854 C.3     
  27 C27           -2.8385     5.3497    10.5178 C.ar    
  28 C28           -2.6741     6.0191    11.7238 C.ar    
  29 C29           -1.7445     5.5689    12.6405 C.ar    
  30 C30           -0.9778     4.4531    12.3590 C.ar    
  31 C31           -1.1386     3.7845    11.1592 C.ar    
  32 C32           -2.0704     4.2260    10.2404 C.ar    
  33 C33            1.2780     2.1493     0.0014 C.3     
  34 F34            2.3536     1.2548    -0.0137 F       
  35 F35            1.3303     2.9607    -1.1371 F       
  36 F36            1.3521     2.9484     1.1473 F       
  37 C37           -1.1651    -2.2183     0.0002 C.3     
  38 F38            0.1600    -2.6666    -0.0156 F       
  39 F39           -1.8069    -2.7004     1.1460 F       
  40 F40           -1.8295    -2.6867    -1.1384 F       
  41 H41            0.9446    -0.5313    -0.0101 H       
  42 H42           -3.3198    -0.5893     0.0302 H       
  43 H43           -1.2376     3.1328     0.0372 H       
  44 H44           -2.6014     3.7135     0.9727 H       
  45 H45           -4.2825     4.1439     0.5140 H       
  46 H46           -4.9710     2.1025     4.7010 H       
  47 H47           -2.8848     5.2519     2.6667 H       
  48 H48           -2.5971     6.4380     4.7986 H       
  49 H49           -4.6864     3.2909     6.8321 H       
  50 H50           -4.4098     4.2758     8.3499 H       
  51 H51           -5.5080     6.6767    10.3895 H       
  52 H52           -4.0301     7.6585    10.5315 H       
  53 H53           -4.8421     7.4951     8.9560 H       
  54 H54           -3.2723     6.8909    11.9441 H       
  55 H55           -1.6159     6.0892    13.5782 H       
  56 H56           -0.2515     4.1031    13.0776 H       
  57 H57           -0.5379     2.9136    10.9423 H       
  58 H58           -2.1955     3.7035     9.3036 H       
@<TRIPOS>BOND
   1    1    2 ar
   2    1   33 1
   3    1    6 ar
   4    2    3 ar
   5    2   41 1
   6    3    4 ar
   7    3   37 1
   8    4    5 ar
   9    4   42 1
  10    5    6 ar
  11    5    7 1
  12    6   43 1
  13    7    8 1
  14    7    9 1
  15    7   21 1
  16    8   11 1
  17    9   10 1
  18    9   44 1
  19    9   45 1
  20   10   11 2
  21   10   12 1
  22   12   13 ar
  23   12   14 ar
  24   13   17 ar
  25   13   46 1
  26   14   15 ar
  27   14   47 1
  28   15   16 ar
  29   15   48 1
  30   16   17 ar
  31   16   18 1
  32   17   49 1
  33   18   19 2
  34   18   20 am
  35   20   25 1
  36   20   50 1
  37   21   22 1
  38   21   23 1
  39   21   24 1
  40   25   26 1
  41   25   27 1
  42   26   51 1
  43   26   52 1
  44   26   53 1
  45   27   28 ar
  46   27   32 ar
  47   28   29 ar
  48   28   54 1
  49   29   30 ar
  50   29   55 1
  51   30   31 ar
  52   30   56 1
  53   31   32 ar
  54   31   57 1
  55   32   58 1
  56   33   34 1
  57   33   35 1
  58   33   36 1
  59   37   38 1
  60   37   39 1
  61   37   40 1

#	End of record

