#	Name: ASD02198566
#	Creating user name:	WinNT
#	Creation time:	15. 06. 2019 20:19

#	Modifying user name:	WinNT
#	Modification time:	15. 06. 2019 20:19

#	Program:	/corina/corina34_cracker 3.40 0067  02.08.2006

@<TRIPOS>MOLECULE
ASD02198566
  54   58    0    0    0
SMALL
NO_CHARGES


@<TRIPOS>ATOM
   1 C1             0.0939     1.6037    -0.0343 C.2     
   2 C2             0.2271     0.2549    -0.1588 C.2     
   3 N3            -0.8509    -0.5577    -0.0697 N.pl3   
   4 N4            -2.0414    -0.1281     0.1326 N.2     
   5 C5            -2.3105     1.1538     0.2711 C.2     
   6 C6            -1.2073     2.1211     0.1966 C.2     
   7 C7            -0.6564    -1.9367    -0.2057 C.ar    
   8 C8            -1.1824    -4.0123    -1.2931 C.ar    
   9 C9            -0.2709    -4.6674    -0.4749 C.ar    
  10 C10            0.4430    -3.9546     0.4813 C.ar    
  11 C11            0.2506    -2.5949     0.6155 C.ar    
  12 C12           -3.6961     1.6102     0.5032 C.2     
  13 N13           -4.1360     2.3703     1.5502 N.pl3   
  14 N14           -5.5116     2.5724     1.3824 N.2     
  15 C15           -5.8956     1.9663     0.2873 C.2     
  16 C16           -4.7871     1.3547    -0.2983 C.2     
  17 C17           -3.3517     2.8593     2.6026 C.ar    
  18 C18           -2.3912     2.0467     3.1904 C.ar    
  19 O19           -1.4032     3.3217     0.3191 O.2     
  20 C20           -3.5291     4.1595     3.0568 C.ar    
  21 C21           -2.7542     4.6387     4.0947 C.ar    
  22 C22           -1.8025     3.8251     4.6817 C.ar    
  23 C23           -1.6195     2.5317     4.2280 C.ar    
  24 C24           -1.3756    -2.6504    -1.1598 C.ar    
  25 F25           -2.2622    -2.0123    -1.9548 F       
  26 O26            1.1724     2.4276    -0.1227 O.3     
  27 C27            2.4418     1.8124    -0.3508 C.3     
  28 N28           -0.0755    -6.0440    -0.6094 N.3     
  29 C29           -0.1732    -6.4560    -2.0217 C.3     
  30 C30            1.1488    -7.1650    -2.3836 C.3     
  31 C31            1.6922    -7.6174    -1.0027 C.3     
  32 C32            1.2509    -6.4438    -0.0930 C.3     
  33 F33            0.9082    -8.2703    -3.2068 F       
  34 F34            2.0363    -6.2739    -2.9965 F       
  35 H35            1.2044    -0.1714    -0.3310 H       
  36 H36           -1.7367    -4.5663    -2.0362 H       
  37 H37            1.1515    -4.4647     1.1171 H       
  38 H38            0.8056    -2.0420     1.3590 H       
  39 H39           -6.9034     1.9465    -0.1006 H       
  40 H40           -4.7857     0.7787    -1.2118 H       
  41 H41           -2.2480     1.0363     2.8367 H       
  42 H42           -4.2720     4.7955     2.5985 H       
  43 H43           -2.8915     5.6500     4.4481 H       
  44 H44           -1.1978     4.2022     5.4933 H       
  45 H45           -0.8754     1.8988     4.6885 H       
  46 H46            2.4154     1.2626    -1.2917 H       
  47 H47            3.2140     2.5801    -0.4001 H       
  48 H48            2.6644     1.1251     0.4654 H       
  49 H49           -1.0097    -7.1429    -2.1506 H       
  50 H50           -0.3094    -5.5795    -2.6551 H       
  51 H51            1.2278    -8.5518    -0.6874 H       
  52 H52            2.7781    -7.7098    -1.0216 H       
  53 H53            1.9549    -5.6156    -0.1737 H       
  54 H54            1.1708    -6.7755     0.9422 H       
@<TRIPOS>BOND
   1    1    2 2
   2    1   26 1
   3    1    6 1
   4    2    3 1
   5    2   35 1
   6    3    4 1
   7    3    7 1
   8    4    5 2
   9    5    6 1
  10    5   12 1
  11    6   19 2
  12    7   24 ar
  13    7   11 ar
  14    8    9 ar
  15    8   24 ar
  16    8   36 1
  17    9   10 ar
  18    9   28 1
  19   10   11 ar
  20   10   37 1
  21   11   38 1
  22   12   13 1
  23   12   16 2
  24   13   14 1
  25   13   17 1
  26   14   15 2
  27   15   16 1
  28   15   39 1
  29   16   40 1
  30   17   20 ar
  31   17   18 ar
  32   18   23 ar
  33   18   41 1
  34   20   21 ar
  35   20   42 1
  36   21   22 ar
  37   21   43 1
  38   22   23 ar
  39   22   44 1
  40   23   45 1
  41   24   25 1
  42   26   27 1
  43   27   46 1
  44   27   47 1
  45   27   48 1
  46   28   29 1
  47   28   32 1
  48   29   30 1
  49   29   49 1
  50   29   50 1
  51   30   31 1
  52   30   33 1
  53   30   34 1
  54   31   32 1
  55   31   51 1
  56   31   52 1
  57   32   53 1
  58   32   54 1

#	End of record

