#	Name: ASD01940373
#	Creating user name:	WinNT
#	Creation time:	15. 06. 2019 20:12

#	Modifying user name:	WinNT
#	Modification time:	15. 06. 2019 20:12

#	Program:	/corina/corina34_cracker 3.40 0067  02.08.2006

@<TRIPOS>MOLECULE
ASD01940373
  46   47    0    0    0
SMALL
NO_CHARGES


@<TRIPOS>ATOM
   1 C1             0.3981     1.6518    -0.1640 C.3     
   2 C2             0.5043     0.1272    -0.2361 C.3     
   3 N3            -0.8394    -0.4515    -0.3682 N.3     
   4 C4            -1.4476    -0.0824    -1.6535 C.3     
   5 C5            -0.8027    -1.9108    -0.2030 C.3     
   6 C6            -2.2313    -2.4482    -0.0974 C.3     
   7 S7             2.0574     2.3665    -0.0009 S.o2    
   8 O8             2.6149     2.0482     1.2668 O.2     
   9 O9             2.8014     2.1777    -1.1967 O.2     
  10 N10            1.7987     4.0008     0.0654 N.am    
  11 C11            1.0311     4.5471     1.1027 C.ar    
  12 C12            0.2007     5.6398     0.8563 C.ar    
  13 C13           -0.5579     6.1767     1.8874 C.ar    
  14 C14           -0.4877     5.6256     3.1574 C.ar    
  15 C15            0.3376     4.5414     3.3995 C.ar    
  16 C16            1.0915     3.9987     2.3746 C.ar    
  17 N17            0.1324     6.1949    -0.4290 N.pl3   
  18 C18           -0.3752     7.4857    -0.6071 C.ar    
  19 C19            0.3786     8.5905    -0.2231 C.ar    
  20 C20           -0.1267     9.8648    -0.4014 C.ar    
  21 C21           -1.3803    10.0411    -0.9604 C.ar    
  22 C22           -2.1312     8.9444    -1.3422 C.ar    
  23 C23           -1.6298     7.6680    -1.1727 C.ar    
  24 I24           -2.1426    11.9741    -1.2281 I       
  25 F25            1.6020     8.4181     0.3234 F       
  26 F26           -1.2260     6.1483     4.1609 F       
  27 F27           -1.3636     7.2356     1.6535 F       
  28 H28           -0.0712     2.0268    -1.0736 H       
  29 H29           -0.2053     1.9336     0.6989 H       
  30 H30            1.1077    -0.1546    -1.0990 H       
  31 H31            0.9736    -0.2477     0.6734 H       
  32 H32           -0.8261    -0.4521    -2.4690 H       
  33 H33           -2.4416    -0.5239    -1.7252 H       
  34 H34           -1.5263     1.0027    -1.7198 H       
  35 H35           -0.3076    -2.3615    -1.0631 H       
  36 H36           -0.2528    -2.1599     0.7045 H       
  37 H37           -2.7264    -1.9975     0.7628 H       
  38 H38           -2.7813    -2.1990    -1.0049 H       
  39 H39           -2.2041    -3.5309     0.0252 H       
  40 H40            2.1785     4.5799    -0.6137 H       
  41 H41            0.3902     4.1153     4.3905 H       
  42 H42            1.7307     3.1495     2.5662 H       
  43 H43            0.4372     5.6836    -1.1949 H       
  44 H44            0.4571    10.7233    -0.1039 H       
  45 H45           -3.1094     9.0859    -1.7775 H       
  46 H46           -2.2155     6.8127    -1.4755 H       
@<TRIPOS>BOND
   1    1    2 1
   2    1    7 1
   3    1   28 1
   4    1   29 1
   5    2    3 1
   6    2   30 1
   7    2   31 1
   8    3    4 1
   9    3    5 1
  10    4   32 1
  11    4   33 1
  12    4   34 1
  13    5    6 1
  14    5   35 1
  15    5   36 1
  16    6   37 1
  17    6   38 1
  18    6   39 1
  19    7    8 2
  20    7    9 2
  21    7   10 am
  22   10   11 1
  23   10   40 1
  24   11   12 ar
  25   11   16 ar
  26   12   13 ar
  27   12   17 1
  28   13   14 ar
  29   13   27 1
  30   14   15 ar
  31   14   26 1
  32   15   16 ar
  33   15   41 1
  34   16   42 1
  35   17   18 1
  36   17   43 1
  37   18   19 ar
  38   18   23 ar
  39   19   20 ar
  40   19   25 1
  41   20   21 ar
  42   20   44 1
  43   21   22 ar
  44   21   24 1
  45   22   23 ar
  46   22   45 1
  47   23   46 1

#	End of record

