#	Name: ASD09116259
#	Creating user name:	WinNT
#	Creation time:	15. 06. 2019 21:21

#	Modifying user name:	WinNT
#	Modification time:	15. 06. 2019 21:21

#	Program:	/corina/corina34_cracker 3.40 0067  02.08.2006

@<TRIPOS>MOLECULE
ASD09116259
  67   72    0    0    0
SMALL
NO_CHARGES


@<TRIPOS>ATOM
   1 N1            -0.0297     1.4194     0.1495 N.pl3   
   2 N2            -0.0210     0.0207     0.2732 N.2     
   3 C3             1.2668     1.8082     0.1167 C.2     
   4 N4             2.0155     0.7300     0.2129 N.2     
   5 C5             1.2357    -0.3529     0.3077 C.2     
   6 N6             1.7236     3.1080     0.0019 N.pl3   
   7 C7             3.0943     3.3795     0.0960 C.ar    
   8 C8             3.6355     4.4643    -0.5814 C.ar    
   9 C9             4.9868     4.7320    -0.4886 C.ar    
  10 C10            5.8049     3.9163     0.2822 C.ar    
  11 C11            5.2637     2.8314     0.9596 C.ar    
  12 C12            3.9114     2.5672     0.8714 C.ar    
  13 C13           -1.1525     2.2450     0.0699 C.ar    
  14 N14           -1.0703     3.5129     0.4446 N.ar    
  15 N15           -2.0762     4.3122     0.4002 N.ar    
  16 C16           -3.2632     3.9106    -0.0252 C.ar    
  17 C17           -3.4392     2.5942    -0.4612 C.ar    
  18 C18           -2.3616     1.7355    -0.4103 C.ar    
  19 C19           -4.4369     4.8143    -0.0264 C.ar    
  20 C20           -5.6324     4.3681     0.5390 C.ar    
  21 C21           -5.6825     3.0092     1.1819 C.3     
  22 C22           -5.7583     1.9006     0.1356 C.3     
  23 C23           -4.7714     2.1599    -0.9995 C.3     
  24 C24           -4.3625     6.0866    -0.5824 C.ar    
  25 C25           -5.4816     6.8966    -0.5884 C.ar    
  26 C26           -6.6701     6.4428    -0.0458 C.ar    
  27 C27           -6.7460     5.1801     0.5163 C.ar    
  28 N28            1.6865    -1.6673     0.4245 N.pl3   
  29 N29            7.1747     4.1873     0.3759 N.3     
  30 C30            7.8481     3.2054     1.2374 C.3     
  31 C31            7.4091     5.5554     0.8585 C.3     
  32 C32            8.9132     5.8384     0.8711 C.3     
  33 N33            9.5865     4.8565     1.7325 N.3     
  34 C34            9.3521     3.4884     1.2499 C.3     
  35 C35            9.4645     5.7318    -0.5522 C.3     
  36 C36           10.0511     2.4930     2.1781 C.3     
  37 H37            1.0946     3.8320    -0.1439 H       
  38 H38            2.9993     5.0984    -1.1811 H       
  39 H39            5.4077     5.5754    -1.0157 H       
  40 H40            5.9000     2.1969     1.5588 H       
  41 H41            3.4905     1.7235     1.3982 H       
  42 H42           -2.4510     0.7054    -0.7225 H       
  43 H43           -4.7870     2.8678     1.7870 H       
  44 H44           -6.5597     2.9518     1.8264 H       
  45 H45           -5.5214     0.9463     0.6061 H       
  46 H46           -6.7690     1.8587    -0.2702 H       
  47 H47           -5.1680     2.9413    -1.6478 H       
  48 H48           -4.6431     1.2455    -1.5788 H       
  49 H49           -3.4345     6.4400    -1.0070 H       
  50 H50           -5.4282     7.8863    -1.0174 H       
  51 H51           -7.5440     7.0771    -0.0609 H       
  52 H52           -7.6772     4.8317     0.9380 H       
  53 H53            2.6382    -1.8539     0.4418 H       
  54 H54            1.0483    -2.3950     0.4885 H       
  55 H55            7.4553     3.2814     2.2513 H       
  56 H56            7.6702     2.2013     0.8524 H       
  57 H57            6.9112     6.2646     0.1972 H       
  58 H58            7.0113     5.6580     1.8681 H       
  59 H59            9.0911     6.8425     1.2561 H       
  60 H60           10.5741     5.0519     1.8001 H       
  61 H61            9.7499     3.3858     0.2403 H       
  62 H62            8.9635     6.4588    -1.1913 H       
  63 H63           10.5357     5.9334    -0.5429 H       
  64 H64            9.2872     4.7272    -0.9362 H       
  65 H65            9.6522     2.5954     3.1873 H       
  66 H66            9.8770     1.4783     1.8199 H       
  67 H67           11.1220     2.6960     2.1884 H       
@<TRIPOS>BOND
   1    1    2 1
   2    1    3 1
   3    1   13 1
   4    2    5 2
   5    3    4 2
   6    3    6 1
   7    4    5 1
   8    5   28 1
   9    6    7 1
  10    6   37 1
  11    7    8 ar
  12    7   12 ar
  13    8    9 ar
  14    8   38 1
  15    9   10 ar
  16    9   39 1
  17   10   11 ar
  18   10   29 1
  19   11   12 ar
  20   11   40 1
  21   12   41 1
  22   13   14 ar
  23   13   18 ar
  24   14   15 ar
  25   15   16 ar
  26   16   17 ar
  27   16   19 1
  28   17   18 ar
  29   17   23 1
  30   18   42 1
  31   19   20 ar
  32   19   24 ar
  33   20   21 1
  34   20   27 ar
  35   21   22 1
  36   21   43 1
  37   21   44 1
  38   22   23 1
  39   22   45 1
  40   22   46 1
  41   23   47 1
  42   23   48 1
  43   24   25 ar
  44   24   49 1
  45   25   26 ar
  46   25   50 1
  47   26   27 ar
  48   26   51 1
  49   27   52 1
  50   28   53 1
  51   28   54 1
  52   29   30 1
  53   29   31 1
  54   30   34 1
  55   30   55 1
  56   30   56 1
  57   31   32 1
  58   31   57 1
  59   31   58 1
  60   32   33 1
  61   32   35 1
  62   32   59 1
  63   33   34 1
  64   33   60 1
  65   34   36 1
  66   34   61 1
  67   35   62 1
  68   35   63 1
  69   35   64 1
  70   36   65 1
  71   36   66 1
  72   36   67 1

#	End of record

