#	Name: ASD01914010
#	Creating user name:	WinNT
#	Creation time:	15. 06. 2019 20:02

#	Modifying user name:	WinNT
#	Modification time:	15. 06. 2019 20:02

#	Program:	/corina/corina34_cracker 3.40 0067  02.08.2006

@<TRIPOS>MOLECULE
ASD01914010
  51   53    0    0    0
SMALL
NO_CHARGES


@<TRIPOS>ATOM
   1 C1            -0.0167     1.3803     0.0096 C.ar    
   2 C2             0.0021    -0.0041     0.0020 C.ar    
   3 C3             1.2096    -0.6812    -0.0132 C.ar    
   4 C4             2.3803     1.4108    -0.0131 C.ar    
   5 C5             1.1698     2.0879     0.0021 C.ar    
   6 O6             3.5486     2.1059    -0.0210 O.3     
   7 C7             4.7570     1.3433    -0.0367 C.3     
   8 C8             5.9400     2.2769    -0.0435 C.ar    
   9 N9             7.1609     1.7771    -0.0579 N.ar    
  10 C10            8.2282     2.5486    -0.0644 C.ar    
  11 C11            8.0996     3.9378    -0.0557 C.ar    
  12 C12            6.8165     4.4982    -0.0403 C.ar    
  13 C13            5.7280     3.6441    -0.0402 C.ar    
  14 C14            9.2979     4.8037    -0.0620 C.2     
  15 N15           10.5276     4.2523    -0.0763 N.am    
  16 O16            9.1741     6.0128    -0.0543 O.2     
  17 C17           11.7151     5.1103    -0.0826 C.3     
  18 C18            2.3976     0.0239    -0.0203 C.ar    
  19 C19           12.8997     4.3460     0.5120 C.3     
  20 C20           12.0416     5.5187    -1.5205 C.3     
  21 C21           14.1398     5.2421     0.5054 C.3     
  22 C22           15.3244     4.4778     1.1000 C.3     
  23 C23           14.9979     4.0694     2.5379 C.3     
  24 C24           13.7578     3.1733     2.5444 C.3     
  25 C25           12.5732     3.9376     1.9499 C.3     
  26 F26           -1.1590    -0.6948     0.0099 F       
  27 H27           -0.9594     1.9073     0.0170 H       
  28 H28            1.2229    -1.7611    -0.0191 H       
  29 H29            1.1549     3.1678     0.0081 H       
  30 H30            4.7988     0.7104     0.8498 H       
  31 H31            4.7814     0.7194    -0.9301 H       
  32 H32            9.2115     2.1020    -0.0763 H       
  33 H33            6.6799     5.5695    -0.0332 H       
  34 H34            4.7234     4.0404    -0.0285 H       
  35 H35           10.6265     3.2874    -0.0825 H       
  36 H36           11.5220     6.0022     0.5135 H       
  37 H37            3.3394    -0.5046    -0.0315 H       
  38 H38           13.0927     3.4541    -0.0841 H       
  39 H39           12.2346     4.6268    -2.1166 H       
  40 H40           11.1977     6.0632    -1.9441 H       
  41 H41           12.9251     6.1571    -1.5251 H       
  42 H42           14.3724     5.5331    -0.5189 H       
  43 H43           13.9467     6.1340     1.1016 H       
  44 H44           15.5174     3.5859     0.5039 H       
  45 H45           16.2079     5.1162     1.0953 H       
  46 H46           15.8418     3.5249     2.9615 H       
  47 H47           14.8048     4.9613     3.1340 H       
  48 H48           13.9508     2.2814     1.9483 H       
  49 H49           13.5251     2.8823     3.5688 H       
  50 H50           12.3801     4.8295     2.5460 H       
  51 H51           11.6897     3.2992     1.9545 H       
@<TRIPOS>BOND
   1    1    2 ar
   2    1    5 ar
   3    1   27 1
   4    2    3 ar
   5    2   26 1
   6    3   18 ar
   7    3   28 1
   8    4    5 ar
   9    4    6 1
  10    4   18 ar
  11    5   29 1
  12    6    7 1
  13    7    8 1
  14    7   30 1
  15    7   31 1
  16    8    9 ar
  17    8   13 ar
  18    9   10 ar
  19   10   11 ar
  20   10   32 1
  21   11   12 ar
  22   11   14 1
  23   12   13 ar
  24   12   33 1
  25   13   34 1
  26   14   15 am
  27   14   16 2
  28   15   17 1
  29   15   35 1
  30   17   19 1
  31   17   20 1
  32   17   36 1
  33   18   37 1
  34   19   21 1
  35   19   25 1
  36   19   38 1
  37   20   39 1
  38   20   40 1
  39   20   41 1
  40   21   22 1
  41   21   42 1
  42   21   43 1
  43   22   23 1
  44   22   44 1
  45   22   45 1
  46   23   24 1
  47   23   46 1
  48   23   47 1
  49   24   25 1
  50   24   48 1
  51   24   49 1
  52   25   50 1
  53   25   51 1

#	End of record

