#	Name: ASD02030365
#	Creating user name:	WinNT
#	Creation time:	15. 06. 2019 20:15

#	Modifying user name:	WinNT
#	Modification time:	15. 06. 2019 20:15

#	Program:	/corina/corina34_cracker 3.40 0067  02.08.2006

@<TRIPOS>MOLECULE
ASD02030365
  45   46    0    0    0
SMALL
NO_CHARGES


@<TRIPOS>ATOM
   1 N1            -0.3551     1.4678    -0.9490 N.3     
   2 C2            -0.3382    -0.0015    -0.9687 C.3     
   3 C3             0.6734    -0.4836    -2.0138 C.3     
   4 N4             1.9741     0.1421    -1.7313 N.am    
   5 C5             2.0202     1.6033    -1.5640 C.3     
   6 C6             0.9471     2.0107    -0.5540 C.3     
   7 C7             3.0928    -0.6024    -1.6280 C.2     
   8 O8             4.1753    -0.0608    -1.5205 O.2     
   9 C9             3.0029    -2.0812    -1.6456 C.ar    
  10 N10            1.8540    -2.6742    -1.3447 N.ar    
  11 C11            1.7318    -3.9846    -1.3490 C.ar    
  12 C12            2.8080    -4.7988    -1.6707 C.ar    
  13 C13            4.0254    -4.2198    -1.9911 C.ar    
  14 C14            4.1228    -2.8370    -1.9834 C.ar    
  15 Cl15           0.2040    -4.7038    -0.9461 Cl      
  16 C16            0.8739     3.5418    -0.4577 C.3     
  17 C17            1.2126     3.9055     1.0035 C.3     
  18 C18            2.0353     2.6967     1.5153 C.3     
  19 C19            1.3278     1.4920     0.8449 C.3     
  20 H20           -0.6456     1.8381    -1.8416 H       
  21 H21           -0.0516    -0.3751     0.0143 H       
  22 H22           -1.3304    -0.3733    -1.2243 H       
  23 H23            0.7690    -1.5680    -1.9575 H       
  24 H24            0.3368    -0.1946    -3.0094 H       
  25 H25            3.0021     1.8987    -1.1942 H       
  26 H26            1.8253     2.0877    -2.5208 H       
  27 H27            2.6981    -5.8732    -1.6712 H       
  28 H28            4.8782    -4.8320    -2.2447 H       
  29 H29            5.0565    -2.3526    -2.2284 H       
  30 H30            1.5999     3.9939    -1.1334 H       
  31 H31           -0.1311     3.8841    -0.7048 H       
  32 H32            1.8097     4.8166     1.0412 H       
  33 H33            0.3005     4.0215     1.5890 H       
  34 H34            3.0719     2.7679     1.1860 H       
  35 H35            1.9781     2.6227     2.6012 H       
  36 H36            0.4350     1.2137     1.4049 H       
  37 H37            2.0092     0.6450     0.7656 H       
  38 C38           11.1893    12.9752     8.7346 C.3     
  39 C39           11.2097    11.4684     8.7264 C.2     
  40 O40           10.0565    10.7815     8.7337 O.3     
  41 O41           12.2641    10.8786     8.7131 O.2     
  42 F42           12.5017    13.4595     8.7247 F       
  43 F43           10.5126    13.4387     7.6012 F       
  44 F44           10.5344    13.4264     9.8857 F       
  45 H45           10.1202     9.8166     8.7279 H       
@<TRIPOS>BOND
   1    1    2 1
   2    1    6 1
   3    1   20 1
   4    2    3 1
   5    2   21 1
   6    2   22 1
   7    3    4 1
   8    3   23 1
   9    3   24 1
  10    4    5 1
  11    4    7 am
  12    5    6 1
  13    5   25 1
  14    5   26 1
  15    6   16 1
  16    6   19 1
  17    7    8 2
  18    7    9 1
  19    9   10 ar
  20    9   14 ar
  21   10   11 ar
  22   11   12 ar
  23   11   15 1
  24   12   13 ar
  25   12   27 1
  26   13   14 ar
  27   13   28 1
  28   14   29 1
  29   16   17 1
  30   16   30 1
  31   16   31 1
  32   17   18 1
  33   17   32 1
  34   17   33 1
  35   18   19 1
  36   18   34 1
  37   18   35 1
  38   19   36 1
  39   19   37 1
  40   38   39 1
  41   38   42 1
  42   38   43 1
  43   38   44 1
  44   39   40 1
  45   39   41 2
  46   40   45 1

#	End of record

