#	Name: ASD02038819
#	Creating user name:	WinNT
#	Creation time:	15. 06. 2019 20:17

#	Modifying user name:	WinNT
#	Modification time:	15. 06. 2019 20:17

#	Program:	/corina/corina34_cracker 3.40 0067  02.08.2006

@<TRIPOS>MOLECULE
ASD02038819
  52   55    0    0    0
SMALL
NO_CHARGES


@<TRIPOS>ATOM
   1 C1            -1.2823    -0.8512     0.4656 C.2     
   2 C2            -0.0606    -0.0343     0.3017 C.2     
   3 N3             1.1368    -0.6350     0.1536 N.am    
   4 C4             1.2418    -2.0930     0.2501 C.3     
   5 C5             1.2139    -2.6913    -1.1327 C.ar    
   6 C6             2.3333     0.1702    -0.1039 C.3     
   7 O7            -0.1363     1.1789     0.3005 O.2     
   8 N8            -1.3378    -2.1952     0.4970 N.2     
   9 C9            -2.5932    -2.5285     0.6567 C.2     
  10 N10           -3.3112    -1.3921     0.7238 N.pl3   
  11 N11           -2.5060    -0.3925     0.6123 N.2     
  12 C12            2.3968    -3.0122    -1.7680 C.ar    
  13 C13            2.1214     1.0142    -1.3645 C.3     
  14 C14            3.3442     1.9096    -1.5812 C.3     
  15 O15            3.5439     2.7284    -0.4272 O.3     
  16 C16            3.7939     1.9942     0.7731 C.3     
  17 C17            2.5892     1.1023     1.0844 C.3     
  18 C18           -4.7631    -1.3062     0.8998 C.3     
  19 C19            0.0031    -2.9228    -1.7598 C.ar    
  20 C20           -0.0312    -3.4715    -3.0288 C.ar    
  21 C21            1.1467    -3.7918    -3.6775 C.ar    
  22 C22            2.3707    -3.5652    -3.0462 C.ar    
  23 C23            3.6391    -3.9060    -3.7362 C.ar    
  24 C24            3.8050    -5.1639    -4.3125 C.ar    
  25 C25            4.9863    -5.4767    -4.9532 C.ar    
  26 C26            6.0066    -4.5421    -5.0242 C.ar    
  27 C27            5.8460    -3.2903    -4.4527 C.ar    
  28 C28            4.6659    -2.9671    -3.8150 C.ar    
  29 F29            1.1131    -4.3283    -4.9170 F       
  30 F30            7.1618    -4.8527    -5.6522 F       
  31 H31            2.1778    -2.3581     0.7419 H       
  32 H32            0.4042    -2.4800     0.8304 H       
  33 H33            3.1915    -0.4869    -0.2451 H       
  34 H34           -2.9827    -3.5337     0.7224 H       
  35 H35            3.3410    -2.8343    -1.2748 H       
  36 H36            1.9935     0.3578    -2.2252 H       
  37 H37            1.2331     1.6341    -1.2427 H       
  38 H38            4.2252     1.2886    -1.7431 H       
  39 H39            3.1807     2.5434    -2.4527 H       
  40 H40            4.6809     1.3744     0.6419 H       
  41 H41            3.9545     2.6890     1.5974 H       
  42 H42            1.7103     1.7239     1.2556 H       
  43 H43            2.7958     0.5088     1.9750 H       
  44 H44           -4.9984    -1.2662     1.9634 H       
  45 H45           -5.1356    -0.4059     0.4112 H       
  46 H46           -5.2354    -2.1825     0.4559 H       
  47 H47           -0.9195    -2.6743    -1.2563 H       
  48 H48           -0.9796    -3.6504    -3.5135 H       
  49 H49            3.0102    -5.8931    -4.2573 H       
  50 H50            5.1158    -6.4515    -5.3998 H       
  51 H51            6.6440    -2.5648    -4.5104 H       
  52 H52            4.5414    -1.9909    -3.3701 H       
@<TRIPOS>BOND
   1    1    2 1
   2    1    8 1
   3    1   11 2
   4    2    3 am
   5    2    7 2
   6    3    4 1
   7    3    6 1
   8    4    5 1
   9    4   31 1
  10    4   32 1
  11    5   12 ar
  12    5   19 ar
  13    6   13 1
  14    6   17 1
  15    6   33 1
  16    8    9 2
  17    9   10 1
  18    9   34 1
  19   10   11 1
  20   10   18 1
  21   12   22 ar
  22   12   35 1
  23   13   14 1
  24   13   36 1
  25   13   37 1
  26   14   15 1
  27   14   38 1
  28   14   39 1
  29   15   16 1
  30   16   17 1
  31   16   40 1
  32   16   41 1
  33   17   42 1
  34   17   43 1
  35   18   44 1
  36   18   45 1
  37   18   46 1
  38   19   20 ar
  39   19   47 1
  40   20   21 ar
  41   20   48 1
  42   21   22 ar
  43   21   29 1
  44   22   23 1
  45   23   24 ar
  46   23   28 ar
  47   24   25 ar
  48   24   49 1
  49   25   26 ar
  50   25   50 1
  51   26   27 ar
  52   26   30 1
  53   27   28 ar
  54   27   51 1
  55   28   52 1

#	End of record

