#	Name: ASD00731029
#	Creating user name:	WinNT
#	Creation time:	15. 06. 2019 18:37

#	Modifying user name:	WinNT
#	Modification time:	15. 06. 2019 18:37

#	Program:	/corina/corina34_cracker 3.40 0067  02.08.2006

@<TRIPOS>MOLECULE
ASD00731029
 216  218    0    0    0
SMALL
NO_CHARGES


@<TRIPOS>ATOM
   1 C1             0.6303     1.9293     0.0773 C.2     
   2 O2             0.6734     0.7900     0.4908 O.2     
   3 N3             3.0451     1.7974    -0.1601 N.3     
   4 C4             1.8468     2.5441    -0.5657 C.3     
   5 C5             1.7021     2.4885    -2.0878 C.3     
   6 C6             2.8760     3.2227    -2.7388 C.3     
   7 C7             2.7314     3.1671    -4.2609 C.3     
   8 N8             3.8555     3.8701    -4.8843 N.pl3   
   9 C9             3.9405     3.9520    -6.2536 C.2     
  10 N10            3.0670     3.3375    -6.9980 N.2     
  11 N11            4.9530     4.6866    -6.8401 N.am    
  12 C12           -2.9320     2.6714     0.0968 C.2     
  13 O13           -2.8281     3.7589    -0.4300 O.2     
  14 N14           -0.5071     2.6437     0.1878 N.am    
  15 C15           -1.7224     2.0106     0.7060 C.3     
  16 C16           -1.7689     2.1650     2.2275 C.3     
  17 C17           -3.0141     1.4635     2.7735 C.3     
  18 C18           -2.9131    -0.0390     2.5026 C.3     
  19 C19           -3.1154     1.7043     4.2810 C.3     
  20 C20           -6.5529     2.1691     0.0892 C.2     
  21 O21           -6.5080     1.4258     1.0465 O.2     
  22 N22           -4.1294     2.0540     0.1375 N.am    
  23 C23           -5.2770     2.6344    -0.5640 C.3     
  24 C24           -5.2603     2.1866    -2.0269 C.3     
  25 C25           -4.0262     2.7639    -2.7229 C.3     
  26 C26           -4.0094     2.3161    -4.1858 C.3     
  27 N27           -2.8277     2.8689    -4.8523 N.pl3   
  28 C28           -2.5990     2.5998    -6.1810 C.2     
  29 N29           -1.5476     3.0917    -6.7739 N.2     
  30 N30           -3.4792     1.8119    -6.8842 N.pl3   
  31 C31          -10.1092     2.1787    -0.7567 C.2     
  32 O32           -9.8960     2.5565    -1.8893 O.2     
  33 N33           -7.7439     2.5789    -0.3904 N.am    
  34 C34           -8.9842     2.1266     0.2446 C.3     
  35 C35           -9.3128     3.0380     1.4287 C.3     
  36 C36           -8.2317     2.8904     2.5013 C.3     
  37 C37           -8.5603     3.8019     3.6854 C.3     
  38 C38           -7.4792     3.6543     4.7580 C.3     
  39 N39           -7.7947     4.5294     5.8949 N.3     
  40 C40          -13.7586     2.0004    -0.6409 C.2     
  41 O41          -13.7785     2.0554     0.5705 O.2     
  42 N42          -11.3523     1.8054    -0.3937 N.am    
  43 C43          -12.4460     1.8561    -1.3671 C.3     
  44 C44          -12.4571     0.5658    -2.1893 C.3     
  45 C45          -11.1962     0.4824    -3.0103 C.2     
  46 C46          -11.0465     0.8735    -4.2857 C.2     
  47 N47           -9.7615     0.6440    -4.6963 N.pl3   
  48 C48           -9.0345     0.0854    -3.6691 C.ar    
  49 C49           -7.7141    -0.3345    -3.5484 C.ar    
  50 C50           -7.2714    -0.8665    -2.3569 C.ar    
  51 C51           -8.1303    -0.9884    -1.2736 C.ar    
  52 C52           -9.4317    -0.5827    -1.3703 C.ar    
  53 C53           -9.8997    -0.0350    -2.5660 C.ar    
  54 C54          -17.2980     1.6624    -1.4902 C.2     
  55 O55          -17.0490     1.2016    -2.5840 O.2     
  56 N56          -14.9103     2.0682    -1.3376 N.am    
  57 C57          -16.1863     2.2084    -0.6317 C.3     
  58 C58          -16.4473     3.6873    -0.3389 C.3     
  59 C59          -15.3874     4.2096     0.6331 C.3     
  60 S60          -15.6969     5.9630     0.9802 S.3     
  61 C61          -14.3612     6.3933     2.1297 C.3     
  62 C62          -20.9505     1.8117    -1.4916 C.2     
  63 O63          -20.9726     2.6410    -0.6069 O.2     
  64 N64          -18.5690     1.6863    -1.0424 N.am    
  65 C65          -19.6497     1.1556    -1.8770 C.3     
  66 C66          -19.7596    -0.3562    -1.6685 C.3     
  67 C67          -18.5049    -1.0247    -2.1683 C.ar    
  68 C68          -17.4366    -1.2175    -1.3125 C.ar    
  69 C69          -16.2857    -1.8307    -1.7710 C.ar    
  70 C70          -16.2032    -2.2515    -3.0851 C.ar    
  71 C71          -17.2719    -2.0595    -3.9407 C.ar    
  72 C72          -18.4244    -1.4502    -3.4811 C.ar    
  73 C73          -23.9615     1.3787    -0.5893 C.2     
  74 O74          -23.3964     0.4197    -0.1193 O.2     
  75 N75          -22.0893     1.4769    -2.1301 N.am    
  76 C76          -23.3538     2.1147    -1.7554 C.3     
  77 C77          -24.3175     2.0731    -2.9430 C.3     
  78 C78          -25.5902     2.8475    -2.5944 C.3     
  79 C79          -26.5003     2.9122    -3.8226 C.3     
  80 C80          -24.6754     0.6194    -3.2587 C.3     
  81 O81          -25.1307     1.7884    -0.0726 O.3     
  82 C82            5.9262     5.2221    -6.0768 C.2     
  83 O83            5.9722     4.9739    -4.8909 O.2     
  84 C84           21.1577    15.8486    -3.5733 C.3     
  85 C85           20.1109    14.9275    -2.9434 C.3     
  86 C86           19.1290    14.4601    -4.0196 C.3     
  87 C87           18.0823    13.5391    -3.3896 C.3     
  88 C88           17.1004    13.0717    -4.4659 C.3     
  89 C89           16.0536    12.1506    -3.8359 C.3     
  90 C90           15.0717    11.6832    -4.9122 C.3     
  91 C91           14.0250    10.7621    -4.2822 C.3     
  92 C92           13.0431    10.2947    -5.3585 C.3     
  93 C93           11.9964     9.3737    -4.7285 C.3     
  94 C94           11.0145     8.9063    -5.8048 C.3     
  95 C95            9.9677     7.9852    -5.1748 C.3     
  96 C96            8.9858     7.5178    -6.2510 C.3     
  97 C97            7.9391     6.5967    -5.6211 C.3     
  98 C98            6.9572     6.1293    -6.6973 C.3     
  99 H99            2.9825     0.8313    -0.4441 H       
 100 H100           3.8808     2.2285    -0.5261 H       
 101 H101           1.9405     3.5823    -0.2473 H       
 102 H102           1.6976     1.4487    -2.4146 H       
 103 H103           0.7672     2.9657    -2.3816 H       
 104 H104           2.8805     4.2625    -2.4120 H       
 105 H105           3.8110     2.7454    -2.4450 H       
 106 H106           2.7269     2.1273    -4.5878 H       
 107 H107           1.7965     3.6443    -4.5547 H       
 108 H108           4.5397     4.2777    -4.3306 H       
 109 H109           3.0828     3.4538    -7.9609 H       
 110 H110           4.9634     4.8170    -7.8013 H       
 111 H111          -0.5212     3.5771    -0.0758 H       
 112 H112          -1.7185     0.9515     0.4482 H       
 113 H113          -0.8775     1.7161     2.6656 H       
 114 H114          -1.8062     3.2236     2.4843 H       
 115 H115          -3.9011     1.8626     2.2814 H       
 116 H116          -3.7553    -0.5497     2.9696 H       
 117 H117          -2.9315    -0.2163     1.4273 H       
 118 H118          -1.9807    -0.4212     2.9181 H       
 119 H119          -3.1873     2.7747     4.4740 H       
 120 H120          -4.0025     1.2045     4.6700 H       
 121 H121          -2.2284     1.3052     4.7731 H       
 122 H122          -4.2312     1.2253     0.6313 H       
 123 H123          -5.2201     3.7219    -0.5163 H       
 124 H124          -5.2277     1.0980    -2.0733 H       
 125 H125          -6.1602     2.5447    -2.5269 H       
 126 H126          -4.0588     3.8525    -2.6766 H       
 127 H127          -3.1262     2.4058    -2.2230 H       
 128 H128          -3.9768     1.2276    -4.2322 H       
 129 H129          -4.9094     2.6742    -4.6858 H       
 130 H130          -2.2067     3.4248    -4.3561 H       
 131 H131          -1.3862     2.9019    -7.7114 H       
 132 H132          -4.2616     1.4459    -6.4430 H       
 133 H133          -3.3178     1.6221    -7.8217 H       
 134 H134          -7.7798     3.1734    -1.1561 H       
 135 H135          -8.8592     1.1030     0.5977 H       
 136 H136          -9.3502     4.0736     1.0907 H       
 137 H137         -10.2796     2.7570     1.8462 H       
 138 H138          -8.1943     1.8549     2.8393 H       
 139 H139          -7.2649     3.1715     2.0838 H       
 140 H140          -8.5977     4.8375     3.3473 H       
 141 H141          -9.5271     3.5209     4.1029 H       
 142 H142          -7.4418     2.6187     5.0960 H       
 143 H143          -6.5124     3.9354     4.3404 H       
 144 H144          -7.0948     4.4501     6.6174 H       
 145 H145          -7.8986     5.4875     5.5958 H       
 146 H146         -11.5229     1.5033     0.5121 H       
 147 H147         -12.3024     2.7087    -2.0309 H       
 148 H148         -12.5115    -0.2918    -1.5187 H       
 149 H149         -13.3228     0.5645    -2.8517 H       
 150 H150         -11.8250     1.3051    -4.8972 H       
 151 H151          -9.4145     0.8450    -5.5795 H       
 152 H152          -7.0381    -0.2441    -4.3858 H       
 153 H153          -6.2458    -1.1923    -2.2653 H       
 154 H154          -7.7673    -1.4076    -0.3468 H       
 155 H155         -10.0944    -0.6810    -0.5233 H       
 156 H156         -14.8943     2.0241    -2.3065 H       
 157 H157         -16.1456     1.6541     0.3060 H       
 158 H158         -16.3998     4.2555    -1.2679 H       
 159 H159         -17.4358     3.8006     0.1062 H       
 160 H160         -15.4349     3.6414     1.5621 H       
 161 H161         -14.3989     4.0963     0.1880 H       
 162 H162         -14.4483     7.4427     2.4114 H       
 163 H163         -14.4344     5.7705     3.0212 H       
 164 H164         -13.3984     6.2254     1.6471 H       
 165 H165         -18.7682     2.0549    -0.1676 H       
 166 H166         -19.4347     1.3631    -2.9252 H       
 167 H167         -19.8862    -0.5683    -0.6069 H       
 168 H168         -20.6190    -0.7375    -2.2201 H       
 169 H169         -17.5010    -0.8888    -0.2858 H       
 170 H170         -15.4508    -1.9807    -1.1025 H       
 171 H171         -15.3037    -2.7300    -3.4435 H       
 172 H172         -17.2073    -2.3880    -4.9675 H       
 173 H173         -19.2607    -1.3035    -4.1485 H       
 174 H174         -22.0716     0.8136    -2.8376 H       
 175 H175         -23.1685     3.1514    -1.4740 H       
 176 H176         -23.8425     2.5274    -3.8125 H       
 177 H177         -26.1120     2.3420    -1.7818 H       
 178 H178         -25.3267     3.8585    -2.2837 H       
 179 H179         -27.4070     3.4639    -3.5743 H       
 180 H180         -25.9785     3.4177    -4.6352 H       
 181 H181         -26.7638     1.9012    -4.1333 H       
 182 H182         -25.3619     0.5898    -4.1048 H       
 183 H183         -23.7687     0.0678    -3.5070 H       
 184 H184         -25.1504     0.1651    -2.3892 H       
 185 H185         -25.4810     1.2846     0.6747 H       
 186 H186          20.6623    16.7139    -4.0137 H       
 187 H187          21.8572    16.1816    -2.8066 H       
 188 H188          21.6993    15.3065    -4.3485 H       
 189 H189          20.6063    14.0622    -2.5030 H       
 190 H190          19.5694    15.4696    -2.1682 H       
 191 H191          18.6337    15.3254    -4.4600 H       
 192 H192          19.6706    13.9180    -4.7948 H       
 193 H193          18.5777    12.6737    -2.9493 H       
 194 H194          17.5407    14.0812    -2.6145 H       
 195 H195          16.6050    13.9370    -4.9063 H       
 196 H196          17.6420    12.5295    -5.2411 H       
 197 H197          16.5490    11.2853    -3.3956 H       
 198 H198          15.5121    12.6927    -3.0607 H       
 199 H199          14.5764    12.5485    -5.3525 H       
 200 H200          15.6133    11.1411    -5.6874 H       
 201 H201          14.5204     9.8968    -3.8419 H       
 202 H202          13.4834    11.3042    -3.5070 H       
 203 H203          12.5477    11.1600    -5.7988 H       
 204 H204          13.5847     9.7526    -6.1336 H       
 205 H205          12.4917     8.5083    -4.2881 H       
 206 H206          11.4548     9.9158    -3.9533 H       
 207 H207          10.5191     9.7716    -6.2451 H       
 208 H208          11.5560     8.3641    -6.5799 H       
 209 H209          10.4631     7.1199    -4.7344 H       
 210 H210           9.4261     8.5273    -4.3996 H       
 211 H211           8.4904     8.3831    -6.6914 H       
 212 H212           9.5274     6.9757    -7.0262 H       
 213 H213           8.4345     5.7314    -5.1807 H       
 214 H214           7.3975     7.1388    -4.8459 H       
 215 H215           7.4988     5.5872    -7.4725 H       
 216 H216           6.4618     6.9946    -7.1377 H       
@<TRIPOS>BOND
   1    1    2 2
   2    1    4 1
   3    1   14 am
   4    3    4 1
   5    3   99 1
   6    3  100 1
   7    4    5 1
   8    4  101 1
   9    5    6 1
  10    5  102 1
  11    5  103 1
  12    6    7 1
  13    6  104 1
  14    6  105 1
  15    7    8 1
  16    7  106 1
  17    7  107 1
  18    8    9 1
  19    8  108 1
  20    9   10 2
  21    9   11 1
  22   10  109 1
  23   11   82 am
  24   11  110 1
  25   12   13 2
  26   12   15 1
  27   12   22 am
  28   14   15 1
  29   14  111 1
  30   15   16 1
  31   15  112 1
  32   16   17 1
  33   16  113 1
  34   16  114 1
  35   17   18 1
  36   17   19 1
  37   17  115 1
  38   18  116 1
  39   18  117 1
  40   18  118 1
  41   19  119 1
  42   19  120 1
  43   19  121 1
  44   20   21 2
  45   20   23 1
  46   20   33 am
  47   22   23 1
  48   22  122 1
  49   23   24 1
  50   23  123 1
  51   24   25 1
  52   24  124 1
  53   24  125 1
  54   25   26 1
  55   25  126 1
  56   25  127 1
  57   26   27 1
  58   26  128 1
  59   26  129 1
  60   27   28 1
  61   27  130 1
  62   28   29 2
  63   28   30 1
  64   29  131 1
  65   30  132 1
  66   30  133 1
  67   31   32 2
  68   31   34 1
  69   31   42 am
  70   33   34 1
  71   33  134 1
  72   34   35 1
  73   34  135 1
  74   35   36 1
  75   35  136 1
  76   35  137 1
  77   36   37 1
  78   36  138 1
  79   36  139 1
  80   37   38 1
  81   37  140 1
  82   37  141 1
  83   38   39 1
  84   38  142 1
  85   38  143 1
  86   39  144 1
  87   39  145 1
  88   40   41 2
  89   40   43 1
  90   40   56 am
  91   42   43 1
  92   42  146 1
  93   43   44 1
  94   43  147 1
  95   44   45 1
  96   44  148 1
  97   44  149 1
  98   45   46 2
  99   45   53 1
 100   46   47 1
 101   46  150 1
 102   47   48 1
 103   47  151 1
 104   48   49 ar
 105   48   53 ar
 106   49   50 ar
 107   49  152 1
 108   50   51 ar
 109   50  153 1
 110   51   52 ar
 111   51  154 1
 112   52   53 ar
 113   52  155 1
 114   54   55 2
 115   54   57 1
 116   54   64 am
 117   56   57 1
 118   56  156 1
 119   57   58 1
 120   57  157 1
 121   58   59 1
 122   58  158 1
 123   58  159 1
 124   59   60 1
 125   59  160 1
 126   59  161 1
 127   60   61 1
 128   61  162 1
 129   61  163 1
 130   61  164 1
 131   62   63 2
 132   62   65 1
 133   62   75 am
 134   64   65 1
 135   64  165 1
 136   65   66 1
 137   65  166 1
 138   66   67 1
 139   66  167 1
 140   66  168 1
 141   67   68 ar
 142   67   72 ar
 143   68   69 ar
 144   68  169 1
 145   69   70 ar
 146   69  170 1
 147   70   71 ar
 148   70  171 1
 149   71   72 ar
 150   71  172 1
 151   72  173 1
 152   73   74 2
 153   73   76 1
 154   73   81 1
 155   75   76 1
 156   75  174 1
 157   76   77 1
 158   76  175 1
 159   77   78 1
 160   77   80 1
 161   77  176 1
 162   78   79 1
 163   78  177 1
 164   78  178 1
 165   79  179 1
 166   79  180 1
 167   79  181 1
 168   80  182 1
 169   80  183 1
 170   80  184 1
 171   81  185 1
 172   82   83 2
 173   82   98 1
 174   84   85 1
 175   84  186 1
 176   84  187 1
 177   84  188 1
 178   85   86 1
 179   85  189 1
 180   85  190 1
 181   86   87 1
 182   86  191 1
 183   86  192 1
 184   87   88 1
 185   87  193 1
 186   87  194 1
 187   88   89 1
 188   88  195 1
 189   88  196 1
 190   89   90 1
 191   89  197 1
 192   89  198 1
 193   90   91 1
 194   90  199 1
 195   90  200 1
 196   91   92 1
 197   91  201 1
 198   91  202 1
 199   92   93 1
 200   92  203 1
 201   92  204 1
 202   93   94 1
 203   93  205 1
 204   93  206 1
 205   94   95 1
 206   94  207 1
 207   94  208 1
 208   95   96 1
 209   95  209 1
 210   95  210 1
 211   96   97 1
 212   96  211 1
 213   96  212 1
 214   97   98 1
 215   97  213 1
 216   97  214 1
 217   98  215 1
 218   98  216 1

#	End of record

