#	Name: ASD07930566
#	Creating user name:	WinNT
#	Creation time:	15. 06. 2019 21:12

#	Modifying user name:	WinNT
#	Modification time:	15. 06. 2019 21:12

#	Program:	/corina/corina34_cracker 3.40 0067  02.08.2006

@<TRIPOS>MOLECULE
ASD07930566
  49   51    0    0    0
SMALL
NO_CHARGES


@<TRIPOS>ATOM
   1 C1            -0.0342     1.4581     0.0424 C.3     
   2 N2             0.7953    -0.4134    -2.1302 N.2     
   3 N3            -0.8904    -1.7835    -1.2685 N.pl3   
   4 C4            -0.9150    -2.8271    -0.2383 C.3     
   5 C5            -1.2300    -2.1885     1.1215 C.3     
   6 S6             0.0062    -0.8913     1.4434 S.o2    
   7 N7            -0.0140    -0.0067     0.0315 N.am    
   8 C8            -0.0112    -0.7260    -1.1552 C.2     
   9 C9             0.4500    -3.5154    -0.1755 C.3     
  10 C10           -1.9764    -3.8423    -0.5755 C.ar    
  11 C11           -2.8068    -3.6379    -1.6599 C.ar    
  12 C12           -3.7852    -4.5735    -1.9708 C.ar    
  13 C13           -3.9266    -5.7130    -1.1903 C.ar    
  14 C14           -3.0935    -5.9141    -0.1057 C.ar    
  15 C15           -2.1146    -4.9818     0.1988 C.ar    
  16 O16           -0.4576     0.0117     2.4377 O.2     
  17 O17            1.3140    -1.4440     1.5003 O.2     
  18 F18           -1.3011    -5.1796     1.2592 F       
  19 N19           -4.6277    -4.3675    -3.0690 N.am    
  20 C20           -5.0478    -5.4175    -3.8023 C.2     
  21 O21           -4.6189    -6.5311    -3.5707 O.2     
  22 C22           -6.0306    -5.2147    -4.8886 C.ar    
  23 N23           -6.4947    -3.9952    -5.1358 N.ar    
  24 C24           -7.3753    -6.1033    -6.6605 C.ar    
  25 C25           -6.4562    -6.3054    -5.6468 C.ar    
  26 C26           -7.3680    -3.7695    -6.0911 C.ar    
  27 C27           -7.8417    -4.8107    -6.8848 C.ar    
  28 O28           -8.7438    -4.5677    -7.8693 O.3     
  29 Cl29          -3.2696    -7.3382     0.8713 Cl      
  30 C30           -9.1691    -3.2142    -8.0399 C.3     
  31 H31           -8.3070    -2.5890    -8.2719 H       
  32 H32           -9.8881    -3.1595    -8.8573 H       
  33 H33           -9.6368    -2.8617    -7.1205 H       
  34 H34            0.9883     1.8356     0.0393 H       
  35 H35           -0.5581     1.8209    -0.8420 H       
  36 H36           -0.5479     1.8077     0.9379 H       
  37 H37            1.4071     0.3331    -2.0332 H       
  38 H38           -1.4883    -1.8387    -2.0303 H       
  39 H39           -2.2270    -1.7484     1.0987 H       
  40 H40           -1.1799    -2.9460     1.9037 H       
  41 H41            1.2165    -2.7805     0.0704 H       
  42 H42            0.4311    -4.2908     0.5903 H       
  43 H43            0.6749    -3.9652    -1.1426 H       
  44 H44           -2.6958    -2.7507    -2.2657 H       
  45 H45           -4.6869    -6.4415    -1.4302 H       
  46 H46           -4.9093    -3.4692    -3.3026 H       
  47 H47           -7.7228    -6.9287    -7.2640 H       
  48 H48           -6.0727    -7.2948    -5.4453 H       
  49 H49           -7.7231    -2.7641    -6.2625 H       
@<TRIPOS>BOND
   1    1    7 1
   2    1   34 1
   3    1   35 1
   4    1   36 1
   5    2    8 2
   6    2   37 1
   7    3    4 1
   8    3    8 1
   9    3   38 1
  10    4    5 1
  11    4    9 1
  12    4   10 1
  13    5    6 1
  14    5   39 1
  15    5   40 1
  16    6    7 am
  17    6   16 2
  18    6   17 2
  19    7    8 1
  20    9   41 1
  21    9   42 1
  22    9   43 1
  23   10   11 ar
  24   10   15 ar
  25   11   12 ar
  26   11   44 1
  27   12   13 ar
  28   12   19 1
  29   13   14 ar
  30   13   45 1
  31   14   15 ar
  32   14   29 1
  33   15   18 1
  34   19   20 am
  35   19   46 1
  36   20   21 2
  37   20   22 1
  38   22   23 ar
  39   22   25 ar
  40   23   26 ar
  41   24   25 ar
  42   24   27 ar
  43   24   47 1
  44   25   48 1
  45   26   27 ar
  46   26   49 1
  47   27   28 1
  48   28   30 1
  49   30   31 1
  50   30   32 1
  51   30   33 1

#	End of record

