#	Name: ASD03730217
#	Creating user name:	WinNT
#	Creation time:	15. 06. 2019 20:44

#	Modifying user name:	WinNT
#	Modification time:	15. 06. 2019 20:44

#	Program:	/corina/corina34_cracker 3.40 0067  02.08.2006

@<TRIPOS>MOLECULE
ASD03730217
  57   62    0    0    0
SMALL
NO_CHARGES


@<TRIPOS>ATOM
   1 O1            -0.4698     1.1377     1.3409 O.3     
   2 C2            -0.4008    -0.2985     1.4167 C.3     
   3 O3             0.6764    -0.6370     0.5235 O.3     
   4 C4             1.4969     0.4546     0.5104 C.ar    
   5 C5             0.7905     1.5462     1.0103 C.ar    
   6 C6             2.8115     0.6070     0.1079 C.ar    
   7 C7             3.4356     1.8479     0.1934 C.ar    
   8 C8             2.7160     2.9340     0.6826 C.ar    
   9 C9             1.4077     2.7832     1.0926 C.ar    
  10 O10            4.7119     2.2056    -0.1284 O.3     
  11 C11            3.6384     4.1220     0.6215 C.3     
  12 C12            4.7787     3.6363    -0.2840 C.3     
  13 N13            3.0702     6.3027     1.0006 N.am    
  14 C14            2.9610     5.3403     0.0629 C.2     
  15 C15            4.1354     4.5298     1.9764 C.ar    
  16 C16            4.8334     3.8722     2.9798 C.ar    
  17 C17            5.1546     4.5468     4.1572 C.ar    
  18 C18            4.7751     5.8649     4.3158 C.ar    
  19 C19            4.0817     6.5185     3.3175 C.ar    
  20 C20            3.7544     5.8576     2.1348 C.ar    
  21 O21            2.4221     5.4391    -1.0191 O.2     
  22 C22            2.5346     7.6577     0.8479 C.3     
  23 C23            1.1005     7.7022     1.3792 C.3     
  24 C24            0.5413     9.1174     1.2197 C.3     
  25 C25           -0.8928     9.1619     1.7509 C.3     
  26 C26           -1.4521    10.5771     1.5914 C.3     
  27 C27            5.2371     2.4556     2.8000 C.ar    
  28 C28            6.1339     2.1070     1.7923 C.ar    
  29 C29            6.5067     0.7868     1.6289 C.ar    
  30 C30            5.9903    -0.1889     2.4639 C.ar    
  31 C31            5.0987     0.1523     3.4661 C.ar    
  32 C32            4.7250     1.4707     3.6418 C.ar    
  33 Cl33           4.4551    -1.0772     4.5090 Cl      
  34 Cl34           7.6240     0.3509     0.3738 Cl      
  35 H35           -0.1702    -0.6177     2.4330 H       
  36 H36           -1.3350    -0.7453     1.0765 H       
  37 H37            3.3573    -0.2427    -0.2748 H       
  38 H38            0.8631     3.6322     1.4786 H       
  39 H39            5.7385     4.0191     0.0631 H       
  40 H40            4.5986     3.9219    -1.3204 H       
  41 H41            5.6973     4.0405     4.9417 H       
  42 H42            5.0223     6.3880     5.2277 H       
  43 H43            3.7906     7.5496     3.4537 H       
  44 H44            3.1523     8.3580     1.4102 H       
  45 H45            2.5402     7.9339    -0.2065 H       
  46 H46            0.4829     7.0019     0.8169 H       
  47 H47            1.0949     7.4260     2.4336 H       
  48 H48            1.1589     9.8177     1.7820 H       
  49 H49            0.5469     9.3936     0.1653 H       
  50 H50           -1.5105     8.4616     1.1886 H       
  51 H51           -0.8984     8.8857     2.8053 H       
  52 H52           -1.4465    10.8532     0.5370 H       
  53 H53           -2.4738    10.6088     1.9699 H       
  54 H54           -0.8344    11.2773     2.1537 H       
  55 H55            6.5368     2.8675     1.1399 H       
  56 H56            6.2839    -1.2199     2.3327 H       
  57 H57            4.0333     1.7367     4.4274 H       
@<TRIPOS>BOND
   1    1    2 1
   2    1    5 1
   3    2    3 1
   4    2   35 1
   5    2   36 1
   6    3    4 1
   7    4    5 ar
   8    4    6 ar
   9    5    9 ar
  10    6    7 ar
  11    6   37 1
  12    7    8 ar
  13    7   10 1
  14    8    9 ar
  15    8   11 1
  16    9   38 1
  17   10   12 1
  18   11   12 1
  19   11   14 1
  20   11   15 1
  21   12   39 1
  22   12   40 1
  23   13   14 am
  24   13   20 1
  25   13   22 1
  26   14   21 2
  27   15   16 ar
  28   15   20 ar
  29   16   17 ar
  30   16   27 1
  31   17   18 ar
  32   17   41 1
  33   18   19 ar
  34   18   42 1
  35   19   20 ar
  36   19   43 1
  37   22   23 1
  38   22   44 1
  39   22   45 1
  40   23   24 1
  41   23   46 1
  42   23   47 1
  43   24   25 1
  44   24   48 1
  45   24   49 1
  46   25   26 1
  47   25   50 1
  48   25   51 1
  49   26   52 1
  50   26   53 1
  51   26   54 1
  52   27   28 ar
  53   27   32 ar
  54   28   29 ar
  55   28   55 1
  56   29   30 ar
  57   29   34 1
  58   30   31 ar
  59   30   56 1
  60   31   32 ar
  61   31   33 1
  62   32   57 1

#	End of record

