#	Name: ASD01200506
#	Creating user name:	WinNT
#	Creation time:	15. 06. 2019 19:09

#	Modifying user name:	WinNT
#	Modification time:	15. 06. 2019 19:09

#	Program:	/corina/corina34_cracker 3.40 0067  02.08.2006

@<TRIPOS>MOLECULE
ASD01200506
  29   30    0    0    0
SMALL
NO_CHARGES


@<TRIPOS>ATOM
   1 N1            -0.0362     1.2900    -0.3275 N.ar    
   2 C2            -0.0224    -0.0187    -0.1728 C.ar    
   3 C3             1.1484    -0.7420    -0.3615 C.ar    
   4 C4             2.3113    -0.0639    -0.7180 C.ar    
   5 C5             2.2505     1.3118    -0.8702 C.ar    
   6 C6             1.0478     1.9614    -0.6646 C.ar    
   7 N7             1.1592    -2.1308    -0.1955 N.am    
   8 C8             0.0871    -2.7548     0.3314 C.2     
   9 C9             2.3359    -2.9070    -0.5943 C.3     
  10 O10           -0.8767    -2.1060     0.6963 O.2     
  11 C11            0.0814    -4.1658     0.4607 C.2     
  12 C12           -1.0264    -4.9390     0.7056 C.2     
  13 C13           -0.7394    -6.2871     0.7773 C.2     
  14 C14            0.5466    -6.6028     0.5988 C.2     
  15 S15            1.4905    -5.2085     0.3260 S.3     
  16 O16           -2.2754    -4.4298     0.8617 O.3     
  17 C17           -3.3294    -5.3619     1.1118 C.3     
  18 H18           -0.9304    -0.5339     0.1038 H       
  19 H19            3.2378    -0.5972    -0.8717 H       
  20 H20            3.1329     1.8703    -1.1457 H       
  21 H21            0.9950     3.0337    -0.7819 H       
  22 H22            2.9751    -3.0696     0.2734 H       
  23 H23            2.0175    -3.8688    -0.9964 H       
  24 H24            2.8906    -2.3602    -1.3569 H       
  25 H25           -1.4986    -7.0321     0.9642 H       
  26 H26            0.9374    -7.6093     0.6243 H       
  27 H27           -3.4004    -6.0620     0.2793 H       
  28 H28           -3.1195    -5.9097     2.0304 H       
  29 H29           -4.2721    -4.8248     1.2163 H       
@<TRIPOS>BOND
   1    1    2 ar
   2    1    6 ar
   3    2    3 ar
   4    2   18 1
   5    3    4 ar
   6    3    7 1
   7    4    5 ar
   8    4   19 1
   9    5    6 ar
  10    5   20 1
  11    6   21 1
  12    7    8 am
  13    7    9 1
  14    8   10 2
  15    8   11 1
  16    9   22 1
  17    9   23 1
  18    9   24 1
  19   11   12 2
  20   11   15 1
  21   12   13 1
  22   12   16 1
  23   13   14 2
  24   13   25 1
  25   14   15 1
  26   14   26 1
  27   16   17 1
  28   17   27 1
  29   17   28 1
  30   17   29 1

#	End of record

