#	Name: ASD01230113
#	Creating user name:	WinNT
#	Creation time:	15. 06. 2019 19:11

#	Modifying user name:	WinNT
#	Modification time:	15. 06. 2019 19:11

#	Program:	/corina/corina34_cracker 3.40 0067  02.08.2006

@<TRIPOS>MOLECULE
ASD01230113
  59   63    0    0    0
SMALL
NO_CHARGES


@<TRIPOS>ATOM
   1 C1            -0.0183     1.3340     0.1411 C.2     
   2 C2             0.0041     0.0062    -0.1325 C.2     
   3 C3            -1.1802    -0.8649    -0.3245 C.ar    
   4 C4            -1.1557    -1.9181    -1.2441 C.ar    
   5 N5             1.2831     1.7500     0.2164 N.pl3   
   6 C6             2.0697     0.6575     0.0155 C.2     
   7 N7             1.2935    -0.3818    -0.2000 N.2     
   8 C8            -2.3502    -0.6594     0.4134 C.ar    
   9 C9            -3.4286    -1.4931     0.2034 C.ar    
  10 N10           -3.3657    -2.4729    -0.6784 N.ar    
  11 C11           -2.2795    -2.7040    -1.3912 C.ar    
  12 C12            3.5480     0.6419     0.0360 C.ar    
  13 C13            4.2299    -0.5008     0.4588 C.ar    
  14 C14           -4.6955    -1.2827     0.9918 C.3     
  15 C15            4.2650     1.7672    -0.3725 C.ar    
  16 C16            5.6438     1.7497    -0.3527 C.ar    
  17 C17            6.3197     0.6147     0.0723 C.ar    
  18 C18            5.6096    -0.5112     0.4760 C.ar    
  19 C19           -1.2251     2.2093     0.3514 C.3     
  20 C20           -0.8635     3.6518    -0.0163 C.3     
  21 O21           -0.2945     4.3057     1.1173 O.3     
  22 C22            0.9079     3.7172     1.6113 C.3     
  23 C23            1.7137     3.1305     0.4488 C.3     
  24 O24            7.6784     0.6016     0.0898 O.3     
  25 F25            6.2712    -1.6141     0.8896 F       
  26 C26           -2.2687    -3.8381    -2.3835 C.3     
  27 C27            8.3443     1.7898    -0.3424 C.3     
  28 C28            9.8355     1.5901    -0.2548 C.ar    
  29 C29           10.5298     1.0841    -1.3378 C.ar    
  30 C30           10.5097     1.9181     0.9065 C.ar    
  31 C31           11.8775     1.7349     0.9868 C.ar    
  32 C32           12.5710     1.2233    -0.0940 C.ar    
  33 C33           11.8976     0.9009    -1.2574 C.ar    
  34 H34           -0.2701    -2.1129    -1.8308 H       
  35 H35           -2.4084     0.1400     1.1372 H       
  36 H36            3.6784    -1.3749     0.7721 H       
  37 H37           -5.3495    -0.5975     0.4525 H       
  38 H38           -5.2024    -2.2382     1.1267 H       
  39 H39           -4.4510    -0.8603     1.9664 H       
  40 H40            3.7404     2.6510    -0.7042 H       
  41 H41            6.1986     2.6207    -0.6689 H       
  42 H42           -2.0411     1.8645    -0.2835 H       
  43 H43           -1.5303     2.1649     1.3969 H       
  44 H44           -0.1421     3.6482    -0.8334 H       
  45 H45           -1.7626     4.1831    -0.3285 H       
  46 H46            1.5026     4.4780     2.1169 H       
  47 H47            0.6600     2.9243     2.3170 H       
  48 H48            2.7750     3.1444     0.6972 H       
  49 H49            1.5408     3.7225    -0.4500 H       
  50 H50           -2.6101    -3.4758    -3.3532 H       
  51 H51           -1.2555    -4.2288    -2.4778 H       
  52 H52           -2.9327    -4.6302    -2.0372 H       
  53 H53            8.0668     2.0071    -1.3738 H       
  54 H54            8.0513     2.6232     0.2961 H       
  55 H55           10.0036     0.8316    -2.2465 H       
  56 H56            9.9680     2.3179     1.7509 H       
  57 H57           12.4044     1.9919     1.8939 H       
  58 H58           13.6397     1.0805    -0.0314 H       
  59 H59           12.4394     0.5011    -2.1019 H       
@<TRIPOS>BOND
   1    1    2 2
   2    1    5 1
   3    1   19 1
   4    2    3 1
   5    2    7 1
   6    3    4 ar
   7    3    8 ar
   8    4   11 ar
   9    4   34 1
  10    5    6 1
  11    5   23 1
  12    6    7 2
  13    6   12 1
  14    8    9 ar
  15    8   35 1
  16    9   10 ar
  17    9   14 1
  18   10   11 ar
  19   11   26 1
  20   12   15 ar
  21   12   13 ar
  22   13   18 ar
  23   13   36 1
  24   14   37 1
  25   14   38 1
  26   14   39 1
  27   15   16 ar
  28   15   40 1
  29   16   17 ar
  30   16   41 1
  31   17   18 ar
  32   17   24 1
  33   18   25 1
  34   19   20 1
  35   19   42 1
  36   19   43 1
  37   20   21 1
  38   20   44 1
  39   20   45 1
  40   21   22 1
  41   22   23 1
  42   22   46 1
  43   22   47 1
  44   23   48 1
  45   23   49 1
  46   24   27 1
  47   26   50 1
  48   26   51 1
  49   26   52 1
  50   27   28 1
  51   27   53 1
  52   27   54 1
  53   28   29 ar
  54   28   30 ar
  55   29   33 ar
  56   29   55 1
  57   30   31 ar
  58   30   56 1
  59   31   32 ar
  60   31   57 1
  61   32   33 ar
  62   32   58 1
  63   33   59 1

#	End of record

