#	Name: ASD04590067
#	Creating user name:	WinNT
#	Creation time:	15. 06. 2019 20:50

#	Modifying user name:	WinNT
#	Modification time:	15. 06. 2019 20:50

#	Program:	/corina/corina34_cracker 3.40 0067  02.08.2006

@<TRIPOS>MOLECULE
ASD04590067
  40   42    0    0    0
SMALL
NO_CHARGES


@<TRIPOS>ATOM
   1 N1             1.0381     0.8184     0.6611 N.pl3   
   2 N2             1.1758    -0.4499     0.8100 N.2     
   3 C3             2.3750    -0.8291     0.4122 C.2     
   4 C4             3.0536     0.3354    -0.0319 C.2     
   5 C5             2.1721     1.3559     0.1427 C.2     
   6 C6             2.9095    -2.2035     0.4264 C.2     
   7 O7             4.0385    -2.4210     0.0303 O.2     
   8 N8             2.1467    -3.2186     0.8784 N.am    
   9 C9             2.6183    -4.5344     0.8063 C.ar    
  10 C10            3.9692    -4.7998     0.9884 C.ar    
  11 C11            4.4325    -6.0988     0.9167 C.ar    
  12 C12            3.5511    -7.1364     0.6634 C.ar    
  13 C13            2.2037    -6.8739     0.4811 C.ar    
  14 C14            1.7352    -5.5769     0.5581 C.ar    
  15 F15            4.0063    -8.4064     0.5937 F       
  16 N16            4.3577     0.4166    -0.5421 N.am    
  17 C17            4.8593     1.6082    -0.9230 C.2     
  18 C18            6.2336     1.6938    -1.4607 C.ar    
  19 C19            6.7102     2.8997    -1.9779 C.ar    
  20 C20            7.9938     2.9729    -2.4776 C.ar    
  21 C21            8.8085     1.8544    -2.4671 C.ar    
  22 C22            8.3422     0.6562    -1.9564 C.ar    
  23 C23            7.0623     0.5708    -1.4482 C.ar    
  24 O24            4.1815     2.6126    -0.8245 O.2     
  25 C25            5.8242     4.1187    -1.9907 C.3     
  26 H26            0.2378     1.3195     0.8832 H       
  27 H27            2.3418     2.3973    -0.0879 H       
  28 H28            1.2708    -3.0372     1.2538 H       
  29 H29            4.6571    -3.9908     1.1856 H       
  30 H30            5.4831    -6.3056     1.0579 H       
  31 H31            1.5180    -7.6845     0.2833 H       
  32 H32            0.6836    -5.3732     0.4206 H       
  33 H33            4.8985    -0.3847    -0.6207 H       
  34 H34            8.3636     3.9051    -2.8784 H       
  35 H35            9.8127     1.9170    -2.8596 H       
  36 H36            8.9830    -0.2131    -1.9514 H       
  37 H37            6.7011    -0.3639    -1.0454 H       
  38 H38            5.8639     4.6069    -1.0169 H       
  39 H39            6.1696     4.8109    -2.7586 H       
  40 H40            4.7983     3.8199    -2.2058 H       
@<TRIPOS>BOND
   1    1    2 1
   2    1    5 1
   3    1   26 1
   4    2    3 2
   5    3    4 1
   6    3    6 1
   7    4    5 2
   8    4   16 1
   9    5   27 1
  10    6    7 2
  11    6    8 am
  12    8    9 1
  13    8   28 1
  14    9   10 ar
  15    9   14 ar
  16   10   11 ar
  17   10   29 1
  18   11   12 ar
  19   11   30 1
  20   12   13 ar
  21   12   15 1
  22   13   14 ar
  23   13   31 1
  24   14   32 1
  25   16   17 am
  26   16   33 1
  27   17   18 1
  28   17   24 2
  29   18   19 ar
  30   18   23 ar
  31   19   20 ar
  32   19   25 1
  33   20   21 ar
  34   20   34 1
  35   21   22 ar
  36   21   35 1
  37   22   23 ar
  38   22   36 1
  39   23   37 1
  40   25   38 1
  41   25   39 1
  42   25   40 1

#	End of record

