#	Name: ASD01812841
#	Creating user name:	WinNT
#	Creation time:	15. 06. 2019 19:29

#	Modifying user name:	WinNT
#	Modification time:	15. 06. 2019 19:29

#	Program:	/corina/corina34_cracker 3.40 0067  02.08.2006

@<TRIPOS>MOLECULE
ASD01812841
  50   54    0    0    0
SMALL
NO_CHARGES


@<TRIPOS>ATOM
   1 N1            -0.0158     1.3146     0.0093 N.ar    
   2 C2             0.0021    -0.0041     0.0020 C.ar    
   3 C3             1.1989    -0.7034    -0.0132 C.ar    
   4 C4             2.3830    -0.0017    -0.0207 C.ar    
   5 C5             2.3453     1.3974    -0.0128 C.ar    
   6 C6             1.0958     2.0332     0.0025 C.ar    
   7 C7             3.8374    -0.3896    -0.0371 C.3     
   8 N8             4.5958     0.8677    -0.0379 N.am    
   9 C9             3.7284     1.8955    -0.0238 C.2     
  10 C10            6.0561     0.9835    -0.0513 C.3     
  11 C11            6.5433     1.0305    -1.4766 C.ar    
  12 C12            6.6713     2.2476    -2.1212 C.ar    
  13 C13            7.1174     2.2965    -3.4264 C.ar    
  14 C14            7.4391     1.1170    -4.0946 C.ar    
  15 C15            7.3082    -0.1062    -3.4405 C.ar    
  16 C16            6.8662    -0.1431    -2.1335 C.ar    
  17 O17            1.0260     3.3854     0.0100 O.3     
  18 O18            4.0435     3.0699    -0.0210 O.2     
  19 C19           -0.2064     3.9612     0.0244 C.ar    
  20 C20           -0.8250     4.2494     1.2336 C.ar    
  21 C21           -2.0783     4.8356     1.2459 C.ar    
  22 C22           -2.7155     5.1347     0.0538 C.ar    
  23 C23           -2.1005     4.8481    -1.1531 C.ar    
  24 C24           -0.8450     4.2668    -1.1700 C.ar    
  25 F25           -3.9394     5.7065     0.0681 F       
  26 F26           -0.2038     3.9574     2.3972 F       
  27 F27           -0.2428     3.9925    -2.3479 F       
  28 N28            8.0851     2.2485    -6.2244 N.2     
  29 C29            7.9188     1.1634    -5.4984 C.2     
  30 C30            8.2766     0.0539    -6.2888 C.2     
  31 C31            8.6582     0.5143    -7.5001 C.2     
  32 N32            8.5500     1.8603    -7.4874 N.pl3   
  33 C33            8.8635     2.7584    -8.6015 C.3     
  34 H34           -0.9309    -0.5480     0.0084 H       
  35 H35            1.2022    -1.7834    -0.0186 H       
  36 H36            4.0799    -0.9730     0.8511 H       
  37 H37            4.0622    -0.9635    -0.9362 H       
  38 H38            6.3529     1.8967     0.4645 H       
  39 H39            6.4935     0.1223     0.4540 H       
  40 H40            6.4214     3.1613    -1.6024 H       
  41 H41            7.2167     3.2473    -3.9289 H       
  42 H42            7.5562    -1.0234    -3.9539 H       
  43 H43            6.7683    -1.0904    -1.6242 H       
  44 H44           -2.5600     5.0596     2.1863 H       
  45 H45           -2.5995     5.0819    -2.0819 H       
  46 H46            8.2510    -0.9810    -5.9810 H       
  47 H47            8.9912    -0.0881    -8.3323 H       
  48 H48            9.9105     3.0562    -8.5446 H       
  49 H49            8.6830     2.2436    -9.5452 H       
  50 H50            8.2303     3.6438    -8.5438 H       
@<TRIPOS>BOND
   1    1    2 ar
   2    1    6 ar
   3    2    3 ar
   4    2   34 1
   5    3    4 ar
   6    3   35 1
   7    4    7 1
   8    4    5 ar
   9    5    6 ar
  10    5    9 1
  11    6   17 1
  12    7    8 1
  13    7   36 1
  14    7   37 1
  15    8    9 am
  16    8   10 1
  17    9   18 2
  18   10   11 1
  19   10   38 1
  20   10   39 1
  21   11   12 ar
  22   11   16 ar
  23   12   13 ar
  24   12   40 1
  25   13   14 ar
  26   13   41 1
  27   14   15 ar
  28   14   29 1
  29   15   16 ar
  30   15   42 1
  31   16   43 1
  32   17   19 1
  33   19   20 ar
  34   19   24 ar
  35   20   21 ar
  36   20   26 1
  37   21   22 ar
  38   21   44 1
  39   22   23 ar
  40   22   25 1
  41   23   24 ar
  42   23   45 1
  43   24   27 1
  44   28   29 2
  45   28   32 1
  46   29   30 1
  47   30   31 2
  48   30   46 1
  49   31   32 1
  50   31   47 1
  51   32   33 1
  52   33   48 1
  53   33   49 1
  54   33   50 1

#	End of record

