#	Name: ASD06660009
#	Creating user name:	WinNT
#	Creation time:	15. 06. 2019 21:07

#	Modifying user name:	WinNT
#	Modification time:	15. 06. 2019 21:07

#	Program:	/corina/corina34_cracker 3.40 0067  02.08.2006

@<TRIPOS>MOLECULE
ASD06660009
  74   78    0    0    0
SMALL
NO_CHARGES


@<TRIPOS>ATOM
   1 C1            -0.1202     1.3885     0.1354 C.2     
   2 C2             0.1007    -0.1011     0.0793 C.3     
   3 C3            -0.5424    -0.6646    -1.1895 C.3     
   4 O4             0.8264     2.1391     0.1600 O.2     
   5 O5            -1.3684     1.8818     0.1525 O.3     
   6 N6             1.5385    -0.3814     0.0638 N.am    
   7 C7             2.1906    -1.0537     1.0280 C.2     
   8 C8             3.6624    -1.1489     0.6916 C.3     
   9 C9             3.8706    -0.0793    -0.4055 C.3     
  10 C10            2.4510     0.0303    -1.0094 C.3     
  11 C11            4.5018    -0.8325     1.9026 C.ar    
  12 C12            5.4662    -1.7269     2.3279 C.ar    
  13 C13            6.2361    -1.4368     3.4387 C.ar    
  14 C14            6.0419    -0.2520     4.1240 C.ar    
  15 C15            5.0781     0.6428     3.6981 C.ar    
  16 C16            4.3112     0.3546     2.5847 C.ar    
  17 O17            1.6742    -1.5164     2.0231 O.2     
  18 C18           -0.4507    -2.1687    -1.1738 C.ar    
  19 C19           -1.3993    -2.9106    -0.4942 C.ar    
  20 C20           -1.3182    -4.2892    -0.4778 C.ar    
  21 C21           -0.2822    -4.9304    -1.1450 C.ar    
  22 C22            0.6690    -4.1821    -1.8267 C.ar    
  23 C23            0.5787    -2.8041    -1.8438 C.ar    
  24 N24           -0.1970    -6.3245    -1.1300 N.3     
  25 C25            0.9682    -6.7887    -1.8938 C.3     
  26 C26            0.9487    -8.3166    -1.9784 C.3     
  27 C27            0.9764    -8.9015    -0.5636 C.3     
  28 C28           -0.2207    -8.3645     0.2258 C.3     
  29 C29           -0.1673    -6.8352     0.2464 C.3     
  30 C30            0.8956   -10.4275    -0.6396 C.3     
  31 N31            1.0421   -10.9918     0.7044 N.pl3   
  32 C32            1.0017   -12.3690     0.8881 C.ar    
  33 C33            0.8218   -13.2060    -0.2087 C.ar    
  34 C34            0.7836   -14.5743    -0.0115 C.ar    
  35 C35            0.9270   -15.0619     1.2810 C.ar    
  36 C36            1.1022   -14.1740     2.3230 C.ar    
  37 N37            1.1401   -12.8730     2.1046 N.ar    
  38 C38            0.5901   -15.5150    -1.1728 C.3     
  39 H39           -0.3513    -0.5686     0.9541 H       
  40 H40           -1.5896    -0.3648    -1.2300 H       
  41 H41           -0.0198    -0.2778    -2.0643 H       
  42 H42           -1.4599     2.8438     0.1888 H       
  43 H43            3.9028    -2.1405     0.3081 H       
  44 H44            4.1882     0.8685     0.0290 H       
  45 H45            4.5847    -0.4223    -1.1542 H       
  46 H46            2.3502    -0.6356    -1.8664 H       
  47 H47            2.2463     1.0595    -1.3044 H       
  48 H48            5.6179    -2.6525     1.7925 H       
  49 H49            6.9890    -2.1359     3.7715 H       
  50 H50            6.6429    -0.0256     4.9923 H       
  51 H51            4.9262     1.5682     4.2337 H       
  52 H52            3.5607     1.0553     2.2498 H       
  53 H53           -2.2043    -2.4115     0.0247 H       
  54 H54           -2.0592    -4.8680     0.0535 H       
  55 H55            1.4757    -4.6775    -2.3465 H       
  56 H56            1.3153    -2.2219    -2.3776 H       
  57 H57            0.9341    -6.3688    -2.8992 H       
  58 H58            1.8818    -6.4641    -1.3957 H       
  59 H59            0.0419    -8.6412    -2.4887 H       
  60 H60            1.8219    -8.6616    -2.5320 H       
  61 H61            1.9013    -8.6091    -0.0665 H       
  62 H62           -1.1459    -8.6899    -0.2499 H       
  63 H63           -0.1829    -8.7437     1.2470 H       
  64 H64            0.7516    -6.5104     0.7346 H       
  65 H65           -1.0261    -6.4492     0.7956 H       
  66 H66           -0.0694   -10.7202    -1.0533 H       
  67 H67            1.6942   -10.8021    -1.2800 H       
  68 H68            1.1673   -10.4044     1.4661 H       
  69 H69            0.7132   -12.7927    -1.2006 H       
  70 H70            0.9013   -16.1252     1.4688 H       
  71 H71            1.2141   -14.5489     3.3297 H       
  72 H72            1.5616   -15.7892    -1.5840 H       
  73 H73            0.0737   -16.4122    -0.8315 H       
  74 H74           -0.0050   -15.0240    -1.9428 H       
@<TRIPOS>BOND
   1    1    2 1
   2    1    4 2
   3    1    5 1
   4    2    3 1
   5    2    6 1
   6    2   39 1
   7    3   18 1
   8    3   40 1
   9    3   41 1
  10    5   42 1
  11    6    7 am
  12    6   10 1
  13    7    8 1
  14    7   17 2
  15    8    9 1
  16    8   11 1
  17    8   43 1
  18    9   10 1
  19    9   44 1
  20    9   45 1
  21   10   46 1
  22   10   47 1
  23   11   12 ar
  24   11   16 ar
  25   12   13 ar
  26   12   48 1
  27   13   14 ar
  28   13   49 1
  29   14   15 ar
  30   14   50 1
  31   15   16 ar
  32   15   51 1
  33   16   52 1
  34   18   19 ar
  35   18   23 ar
  36   19   20 ar
  37   19   53 1
  38   20   21 ar
  39   20   54 1
  40   21   22 ar
  41   21   24 1
  42   22   23 ar
  43   22   55 1
  44   23   56 1
  45   24   25 1
  46   24   29 1
  47   25   26 1
  48   25   57 1
  49   25   58 1
  50   26   27 1
  51   26   59 1
  52   26   60 1
  53   27   28 1
  54   27   30 1
  55   27   61 1
  56   28   29 1
  57   28   62 1
  58   28   63 1
  59   29   64 1
  60   29   65 1
  61   30   31 1
  62   30   66 1
  63   30   67 1
  64   31   32 1
  65   31   68 1
  66   32   33 ar
  67   32   37 ar
  68   33   34 ar
  69   33   69 1
  70   34   35 ar
  71   34   38 1
  72   35   36 ar
  73   35   70 1
  74   36   37 ar
  75   36   71 1
  76   38   72 1
  77   38   73 1
  78   38   74 1

#	End of record

