#	Name: ASD01901092
#	Creating user name:	WinNT
#	Creation time:	15. 06. 2019 19:53

#	Modifying user name:	WinNT
#	Modification time:	15. 06. 2019 19:53

#	Program:	/corina/corina34_cracker 3.40 0067  02.08.2006

@<TRIPOS>MOLECULE
ASD01901092
  27   28    0    0    0
SMALL
NO_CHARGES


@<TRIPOS>ATOM
   1 C1            -0.0184     1.5028     0.0103 C.2     
   2 C2             0.0021    -0.0041     0.0020 C.3     
   3 O3            -1.3386    -0.4987     0.0122 O.3     
   4 C4            -1.4984    -1.8488     0.0064 C.ar    
   5 C5            -2.7744    -2.3987     0.0157 C.ar    
   6 C6            -2.9332    -3.7725     0.0093 C.ar    
   7 C7            -1.8233    -4.5974    -0.0062 C.ar    
   8 C8            -0.5534    -4.0517    -0.0154 C.ar    
   9 C9            -0.3887    -2.6793    -0.0144 C.ar    
  10 F10           -3.8584    -1.5925     0.0313 F       
  11 C11            2.4725     1.5850    -0.0130 C.ar    
  12 C12            1.2453     2.2555     0.0023 C.ar    
  13 C13            1.2403     3.6588     0.0094 C.ar    
  14 C14            2.4551     4.3180     0.0009 C.ar    
  15 C15            3.6277     3.5799    -0.0142 C.ar    
  16 N16            3.6028     2.2592    -0.0206 N.ar    
  17 Cl17           5.1552     4.4048    -0.0255 Cl      
  18 O18           -1.0766     2.0947     0.0185 O.2     
  19 H19            0.5123    -0.3556    -0.8948 H       
  20 H20            0.5293    -0.3651     0.8851 H       
  21 H21           -3.9244    -4.2013     0.0168 H       
  22 H22           -1.9491    -5.6701    -0.0108 H       
  23 H23            0.3113    -4.6986    -0.0271 H       
  24 H24            0.6040    -2.2543    -0.0261 H       
  25 H25            2.4929     0.5052    -0.0142 H       
  26 H26            0.3113     4.2094     0.0209 H       
  27 H27            2.4900     5.3975     0.0056 H       
@<TRIPOS>BOND
   1    1    2 1
   2    1   12 1
   3    1   18 2
   4    2    3 1
   5    2   19 1
   6    2   20 1
   7    3    4 1
   8    4    5 ar
   9    4    9 ar
  10    5    6 ar
  11    5   10 1
  12    6    7 ar
  13    6   21 1
  14    7    8 ar
  15    7   22 1
  16    8    9 ar
  17    8   23 1
  18    9   24 1
  19   11   12 ar
  20   11   16 ar
  21   11   25 1
  22   12   13 ar
  23   13   14 ar
  24   13   26 1
  25   14   15 ar
  26   14   27 1
  27   15   16 ar
  28   15   17 1

#	End of record

