#	Name: ASD01840377
#	Creating user name:	WinNT
#	Creation time:	15. 06. 2019 19:37

#	Modifying user name:	WinNT
#	Modification time:	15. 06. 2019 19:37

#	Program:	/corina/corina34_cracker 3.40 0067  02.08.2006

@<TRIPOS>MOLECULE
ASD01840377
  38   41    0    0    0
SMALL
NO_CHARGES


@<TRIPOS>ATOM
   1 C1            -0.1980     1.4991     0.0324 C.3     
   2 C2            -0.1584    -0.0074     0.0217 C.2     
   3 C3            -0.3247    -0.7088    -1.1757 C.2     
   4 N4            -0.5291    -0.3211    -2.4311 N.2     
   5 N5            -0.6175    -1.3595    -3.1858 N.2     
   6 C6            -0.4777    -2.4509    -2.4731 C.2     
   7 N7            -0.2891    -2.0821    -1.1878 N.pl3   
   8 N8            -0.0871    -2.8003    -0.0073 N.2     
   9 C9             0.0725    -2.1796     1.1352 C.2     
  10 S10            0.3429    -2.7588     2.7819 S.3     
  11 C11            0.4164    -1.1646     3.5400 C.2     
  12 C12            0.6224    -0.9065     4.9187 C.2     
  13 O13            0.6543     0.2410     5.3252 O.2     
  14 N14            0.7830    -1.9311     5.7794 N.am    
  15 C15            0.9958    -1.6645     7.2041 C.3     
  16 C16            1.1451    -2.9696     7.9427 C.ar    
  17 C17            0.0300    -3.6026     8.4590 C.ar    
  18 C18            0.1654    -4.8001     9.1368 C.ar    
  19 C19            1.4158    -5.3654     9.2988 C.ar    
  20 C20            2.5335    -4.7323     8.7816 C.ar    
  21 F21            3.7566    -5.2841     8.9394 F       
  22 C22            2.3962    -3.5360     8.0986 C.ar    
  23 C23            0.2403    -0.2258     2.5665 C.2     
  24 N24            0.2477     1.1314     2.8544 N.pl3   
  25 C25            0.0510    -0.7171     1.2106 C.2     
  26 H26            0.7710     1.8857     0.3481 H       
  27 H27           -0.4259     1.8636    -0.9693 H       
  28 H28           -0.9677     1.8374     0.7260 H       
  29 H29           -0.5084    -3.4637    -2.8468 H       
  30 H30            0.7576    -2.8451     5.4556 H       
  31 H31            1.9003    -1.0696     7.3312 H       
  32 H32            0.1418    -1.1169     7.6028 H       
  33 H33           -0.9476    -3.1613     8.3331 H       
  34 H34           -0.7065    -5.2936     9.5401 H       
  35 H35            1.5213    -6.3004     9.8289 H       
  36 H36            3.2667    -3.0435     7.6912 H       
  37 H37            0.2543     1.4315     3.7768 H       
  38 H38            0.2462     1.7801     2.1333 H       
@<TRIPOS>BOND
   1    1    2 1
   2    1   26 1
   3    1   27 1
   4    1   28 1
   5    2   25 2
   6    2    3 1
   7    3    7 1
   8    3    4 2
   9    4    5 1
  10    5    6 2
  11    6    7 1
  12    6   29 1
  13    7    8 1
  14    8    9 2
  15    9   25 1
  16    9   10 1
  17   10   11 1
  18   11   12 1
  19   11   23 2
  20   12   13 2
  21   12   14 am
  22   14   15 1
  23   14   30 1
  24   15   16 1
  25   15   31 1
  26   15   32 1
  27   16   22 ar
  28   16   17 ar
  29   17   18 ar
  30   17   33 1
  31   18   19 ar
  32   18   34 1
  33   19   20 ar
  34   19   35 1
  35   20   21 1
  36   20   22 ar
  37   22   36 1
  38   23   24 1
  39   23   25 1
  40   24   37 1
  41   24   38 1

#	End of record

