#	Name: ASD04910413
#	Creating user name:	WinNT
#	Creation time:	15. 06. 2019 20:55

#	Modifying user name:	WinNT
#	Modification time:	15. 06. 2019 20:55

#	Program:	/corina/corina34_cracker 3.40 0067  02.08.2006

@<TRIPOS>MOLECULE
ASD04910413
  59   62    0    0    0
SMALL
NO_CHARGES


@<TRIPOS>ATOM
   1 C1             0.7679     1.4217     0.7654 C.2     
   2 C2             0.6853    -0.0795     0.6614 C.3     
   3 C3             2.0931    -0.6581     0.5057 C.3     
   4 O4             1.8425     1.9722     0.7196 O.2     
   5 O5            -0.3528     2.1475     0.9033 O.3     
   6 C6             3.1376    -2.8459     0.2606 C.2     
   7 C7             3.0566    -4.3186     0.1586 C.ar    
   8 C8             4.2195    -5.0759     0.0094 C.ar    
   9 C9             4.1369    -6.4497    -0.0847 C.ar    
  10 C10            2.9049    -7.0770    -0.0319 C.ar    
  11 C11            1.7483    -6.3322     0.1159 C.ar    
  12 C12            1.8173    -4.9581     0.2169 C.ar    
  13 O13            4.2186    -2.2920     0.2145 O.2     
  14 N14            2.0128    -2.1174     0.4046 N.am    
  15 C15            2.8222    -8.5781    -0.1363 C.3     
  16 N16            1.8135    -9.0781     0.8011 N.pl3   
  17 C17            3.4218    -8.9967     2.6056 C.ar    
  18 C18            2.1599    -9.3300     2.1322 C.ar    
  19 C19            1.2428    -9.9184     3.0009 C.ar    
  20 C20            1.6293   -10.1486     4.3095 C.ar    
  21 C21            2.9092    -9.7881     4.7112 C.ar    
  22 N22            3.7546    -9.2311     3.8595 N.ar    
  23 N23            3.3092   -10.0169     6.0328 N.pl3   
  24 N24            2.5295   -10.5952     7.0429 N.2     
  25 C25            3.2455   -10.6421     8.1370 C.2     
  26 C26            4.5046   -10.0964     7.8637 C.2     
  27 C27            4.5244    -9.7232     6.5632 C.2     
  28 C28            5.6405    -9.9542     8.8438 C.3     
  29 F29            5.2475   -10.4563    10.0891 F       
  30 F30            6.7487   -10.6713     8.3804 F       
  31 F31            5.9796    -8.6030     8.9717 F       
  32 C32            2.4312    -8.9694    -1.5628 C.3     
  33 C33            2.2150   -10.4804    -1.7499 C.3     
  34 C34            1.0164   -10.1187    -2.6427 C.3     
  35 C35            0.9321    -8.7979    -1.8597 C.3     
  36 H36            0.2251    -0.4814     1.5640 H       
  37 H37            0.0829    -0.3511    -0.2054 H       
  38 H38            2.5533    -0.2562    -0.3970 H       
  39 H39            2.6955    -0.3865     1.3725 H       
  40 H40           -0.2494     3.1069     0.9659 H       
  41 H41            5.1818    -4.5873    -0.0327 H       
  42 H42            5.0360    -7.0369    -0.2002 H       
  43 H43            0.7896    -6.8280     0.1564 H       
  44 H44            0.9141    -4.3781     0.3368 H       
  45 H45            1.1501    -2.5594     0.4414 H       
  46 H46            3.7916    -9.0132     0.1070 H       
  47 H47            0.9053    -9.2343     0.4983 H       
  48 H48            4.1402    -8.5444     1.9380 H       
  49 H49            0.2538   -10.1881     2.6609 H       
  50 H50            0.9440   -10.6025     5.0100 H       
  51 H51            2.9201   -11.0351     9.0889 H       
  52 H52            5.3553    -9.2713     6.0420 H       
  53 H53            3.0807    -8.5246    -2.3168 H       
  54 H54            3.0254   -10.9744    -2.2859 H       
  55 H55            1.9355   -10.9983    -0.8324 H       
  56 H56            1.2779    -9.9879    -3.6928 H       
  57 H57            0.1527   -10.7678    -2.4983 H       
  58 H58            0.3019    -8.8558    -0.9723 H       
  59 H59            0.7068    -7.9335    -2.4844 H       
@<TRIPOS>BOND
   1    1    2 1
   2    1    4 2
   3    1    5 1
   4    2    3 1
   5    2   36 1
   6    2   37 1
   7    3   14 1
   8    3   38 1
   9    3   39 1
  10    5   40 1
  11    6    7 1
  12    6   13 2
  13    6   14 am
  14    7    8 ar
  15    7   12 ar
  16    8    9 ar
  17    8   41 1
  18    9   10 ar
  19    9   42 1
  20   10   11 ar
  21   10   15 1
  22   11   12 ar
  23   11   43 1
  24   12   44 1
  25   14   45 1
  26   15   16 1
  27   15   32 1
  28   15   46 1
  29   16   18 1
  30   16   47 1
  31   17   18 ar
  32   17   22 ar
  33   17   48 1
  34   18   19 ar
  35   19   20 ar
  36   19   49 1
  37   20   21 ar
  38   20   50 1
  39   21   22 ar
  40   21   23 1
  41   23   24 1
  42   23   27 1
  43   24   25 2
  44   25   26 1
  45   25   51 1
  46   26   27 2
  47   26   28 1
  48   27   52 1
  49   28   29 1
  50   28   30 1
  51   28   31 1
  52   32   33 1
  53   32   35 1
  54   32   53 1
  55   33   34 1
  56   33   54 1
  57   33   55 1
  58   34   35 1
  59   34   56 1
  60   34   57 1
  61   35   58 1
  62   35   59 1

#	End of record

