#	Name: ASD01411073
#	Creating user name:	WinNT
#	Creation time:	15. 06. 2019 19:19

#	Modifying user name:	WinNT
#	Modification time:	15. 06. 2019 19:19

#	Program:	/corina/corina34_cracker 3.40 0067  02.08.2006

@<TRIPOS>MOLECULE
ASD01411073
  40   43    0    0    0
SMALL
NO_CHARGES


@<TRIPOS>ATOM
   1 C1             1.0950     1.3836     1.1972 C.ar    
   2 C2             1.1109     0.0028     1.1875 C.ar    
   3 C3             1.1773     2.0866     0.0020 C.ar    
   4 C4             1.2085    -0.6809    -0.0106 C.ar    
   5 C5             1.2752     1.3984    -1.1997 C.ar    
   6 N6             1.1609     3.4866     0.0092 N.am    
   7 C7             1.2907     0.0160    -1.2033 C.ar    
   8 C8            -0.0180     4.1358    -0.0733 C.2     
   9 C9             2.3556     4.1806     0.1067 C.2     
  10 Cl10           1.4131    -0.8462    -2.7051 Cl      
  11 C11           -0.0206     5.6065    -0.0641 C.ar    
  12 O12           -1.0618     3.5155    -0.1543 O.2     
  13 N13            2.3849     5.5423     0.1177 N.pl3   
  14 N14            3.5951     3.7461     0.2000 N.2     
  15 C15            1.2101     6.2813     0.0306 C.ar    
  16 C16           -1.2108     6.3304    -0.1474 C.ar    
  17 C17            1.2321     7.6644     0.0410 C.ar    
  18 C18           -1.1770     7.6961    -0.1367 C.ar    
  19 C19            0.0388     8.3716    -0.0422 C.ar    
  20 C20            3.7029     5.9216     0.2223 C.2     
  21 C21            4.4314     4.7922     0.2716 C.2     
  22 N22            0.0575     9.7624    -0.0319 N.pl3   
  23 C23           -1.1977    10.5126    -0.1203 C.3     
  24 C24           -0.8986    12.0128    -0.0885 C.3     
  25 O25           -0.1583    12.3757    -1.2556 O.3     
  26 H26            1.0143     1.9165     2.1331 H       
  27 H27            1.0473    -0.5439     2.1167 H       
  28 H28            1.2211    -1.7608    -0.0154 H       
  29 H29            1.3390     1.9422    -2.1306 H       
  30 H30           -2.1558     5.8126    -0.2205 H       
  31 H31            2.1718     8.1918     0.1137 H       
  32 H32           -2.0982     8.2560    -0.2012 H       
  33 H33            4.0805     6.9328     0.2581 H       
  34 H34            5.5068     4.7370     0.3546 H       
  35 H35            0.9017    10.2356     0.0338 H       
  36 H36           -1.7053    10.2630    -1.0520 H       
  37 H37           -1.8371    10.2517     0.7231 H       
  38 H38           -1.8354    12.5696    -0.0646 H       
  39 H39           -0.3135    12.2478     0.8006 H       
  40 H40            0.0668    13.3150    -1.3023 H       
@<TRIPOS>BOND
   1    1    2 ar
   2    1    3 ar
   3    1   26 1
   4    2    4 ar
   5    2   27 1
   6    3    5 ar
   7    3    6 1
   8    4    7 ar
   9    4   28 1
  10    5    7 ar
  11    5   29 1
  12    6    9 1
  13    6    8 am
  14    7   10 1
  15    8   11 1
  16    8   12 2
  17    9   13 1
  18    9   14 2
  19   11   15 ar
  20   11   16 ar
  21   13   20 1
  22   13   15 1
  23   14   21 1
  24   15   17 ar
  25   16   18 ar
  26   16   30 1
  27   17   19 ar
  28   17   31 1
  29   18   19 ar
  30   18   32 1
  31   19   22 1
  32   20   21 2
  33   20   33 1
  34   21   34 1
  35   22   23 1
  36   22   35 1
  37   23   24 1
  38   23   36 1
  39   23   37 1
  40   24   25 1
  41   24   38 1
  42   24   39 1
  43   25   40 1

#	End of record

