#	Name: ASD03540001
#	Creating user name:	WinNT
#	Creation time:	15. 06. 2019 20:42

#	Modifying user name:	WinNT
#	Modification time:	15. 06. 2019 20:42

#	Program:	/corina/corina34_cracker 3.40 0067  02.08.2006

@<TRIPOS>MOLECULE
ASD03540001
  44   47    0    0    0
SMALL
NO_CHARGES


@<TRIPOS>ATOM
   1 C1            -0.0164     1.3579     0.0095 C.2     
   2 N2             0.0021    -0.0041     0.0020 N.am    
   3 C3             1.2286    -0.6238    -0.0130 C.2     
   4 C4             2.3974     0.1025    -0.0203 C.2     
   5 C5             2.3228     1.5016    -0.0121 C.2     
   6 N6             1.1082     2.0844     0.0027 N.am    
   7 S7             0.9041    -2.3627    -0.0187 S.3     
   8 C8            -1.0720    -0.8445     0.0082 C.2     
   9 C9            -0.8580    -2.1686    -0.0006 C.2     
  10 C10           -1.8685    -3.2317     0.0038 C.2     
  11 O11           -3.0506    -2.9468     0.0163 O.2     
  12 O12           -1.4866    -4.5251    -0.0059 O.3     
  13 O13            3.3377     2.1787    -0.0178 O.2     
  14 O14           -1.0879     1.9320     0.0176 O.2     
  15 C15            1.0159     3.5465     0.0109 C.3     
  16 C16            0.9975     4.0407     1.4344 C.ar    
  17 C17            2.1837     4.3428     2.0766 C.ar    
  18 C18            2.1669     4.7961     3.3824 C.ar    
  19 C19            0.9637     4.9476     4.0459 C.ar    
  20 C20           -0.2227     4.6464     3.4035 C.ar    
  21 C21           -0.2060     4.1972     2.0962 C.ar    
  22 C22           -2.5407    -5.5237    -0.0008 C.3     
  23 C23           -1.9283    -6.9006    -0.0131 C.ar    
  24 C24           -1.6362    -7.5378     1.1783 C.ar    
  25 C25           -1.0744    -8.8008     1.1670 C.ar    
  26 C26           -0.8051    -9.4268    -0.0357 C.ar    
  27 C27           -1.0981    -8.7899    -1.2271 C.ar    
  28 C28           -1.6639    -7.5287    -1.2158 C.ar    
  29 H29            3.3549    -0.3969    -0.0317 H       
  30 H30           -2.0776    -0.4507     0.0196 H       
  31 H31            1.8763     3.9678    -0.5089 H       
  32 H32            0.1000     3.8556    -0.4929 H       
  33 H33            3.1238     4.2244     1.5582 H       
  34 H34            3.0937     5.0315     3.8843 H       
  35 H35            0.9505     5.3011     5.0664 H       
  36 H36           -1.1627     4.7644     3.9220 H       
  37 H37           -1.1331     3.9654     1.5931 H       
  38 H38           -3.1494    -5.4048     0.8955 H       
  39 H39           -3.1661    -5.3963    -0.8843 H       
  40 H40           -1.8465    -7.0488     2.1180 H       
  41 H41           -0.8455    -9.2984     2.0979 H       
  42 H42           -0.3656   -10.4132    -0.0445 H       
  43 H43           -0.8874    -9.2789    -2.1668 H       
  44 H44           -1.8961    -7.0327    -2.1466 H       
@<TRIPOS>BOND
   1    1    2 am
   2    1    6 am
   3    1   14 2
   4    2    3 1
   5    2    8 1
   6    3    4 2
   7    3    7 1
   8    4    5 1
   9    4   29 1
  10    5    6 am
  11    5   13 2
  12    6   15 1
  13    7    9 1
  14    8    9 2
  15    8   30 1
  16    9   10 1
  17   10   11 2
  18   10   12 1
  19   12   22 1
  20   15   16 1
  21   15   31 1
  22   15   32 1
  23   16   17 ar
  24   16   21 ar
  25   17   18 ar
  26   17   33 1
  27   18   19 ar
  28   18   34 1
  29   19   20 ar
  30   19   35 1
  31   20   21 ar
  32   20   36 1
  33   21   37 1
  34   22   23 1
  35   22   38 1
  36   22   39 1
  37   23   24 ar
  38   23   28 ar
  39   24   25 ar
  40   24   40 1
  41   25   26 ar
  42   25   41 1
  43   26   27 ar
  44   26   42 1
  45   27   28 ar
  46   27   43 1
  47   28   44 1

#	End of record

