#	Name: ASD02039322
#	Creating user name:	WinNT
#	Creation time:	15. 06. 2019 20:18

#	Modifying user name:	WinNT
#	Modification time:	15. 06. 2019 20:18

#	Program:	/corina/corina34_cracker 3.40 0067  02.08.2006

@<TRIPOS>MOLECULE
ASD02039322
  52   55    0    0    0
SMALL
NO_CHARGES


@<TRIPOS>ATOM
   1 C1            -0.1641     1.5204    -0.2498 C.ar    
   2 C2            -0.2441     0.1361    -0.1967 C.ar    
   3 C3            -1.4814    -0.4754    -0.2811 C.ar    
   4 C4            -2.5488     1.5640    -0.4551 C.ar    
   5 C5            -1.3360     2.2454    -0.3811 C.ar    
   6 C6            -3.8133     2.3262    -0.5964 C.ar    
   7 C7             1.1681     2.2191    -0.1601 C.3     
   8 N8             1.7858     2.2648    -1.4877 N.am    
   9 C9             1.3940     3.3046    -2.4425 C.3     
  10 C10            2.7146     1.3504    -1.8307 C.2     
  11 C11            3.0440     0.2522    -0.9056 C.2     
  12 C12            4.0041    -0.6988    -1.0922 C.2     
  13 C13            2.5952     4.2081    -2.7378 C.3     
  14 N14            2.4514     0.0058     0.2907 N.2     
  15 C15            3.0035    -1.0448     0.8255 C.2     
  16 N16            3.9719    -1.5078    -0.0072 N.pl3   
  17 O17            3.2808     1.4318    -2.9041 O.2     
  18 C18            4.8274    -2.6738     0.2267 C.3     
  19 C19           -5.0311     1.6523    -0.6711 C.ar    
  20 C20           -3.7877     3.7188    -0.6491 C.ar    
  21 C21           -4.9663     4.4238    -0.7801 C.ar    
  22 C22           -6.1742     3.7495    -0.8594 C.ar    
  23 C23           -6.2047     2.3653    -0.8021 C.ar    
  24 N24           -2.5811     0.2382    -0.4113 N.ar    
  25 F25           -7.3260     4.4439    -0.9872 F       
  26 C26            2.1985     5.2422    -3.7947 C.3     
  27 O27            1.7446     4.5692    -4.9708 O.3     
  28 C28            0.5944     3.7465    -4.7652 C.3     
  29 C29            0.9267     2.6524    -3.7473 C.3     
  30 H30            0.6516    -0.4580    -0.0908 H       
  31 H31           -1.5471    -1.5526    -0.2401 H       
  32 H32           -1.3111     3.3245    -0.4165 H       
  33 H33            1.0218     3.2346     0.2077 H       
  34 H34            1.8185     1.6748     0.5246 H       
  35 H35            0.5845     3.9005    -2.0208 H       
  36 H36            4.6634    -0.7892    -1.9428 H       
  37 H37            2.8999     4.7191    -1.8245 H       
  38 H38            3.4221     3.6041    -3.1115 H       
  39 H39            2.7367    -1.4768     1.7787 H       
  40 H40            4.3493    -3.5633    -0.1837 H       
  41 H41            5.7905    -2.5214    -0.2604 H       
  42 H42            4.9788    -2.8043     1.2983 H       
  43 H43           -5.0557     0.5735    -0.6270 H       
  44 H44           -2.8467     4.2452    -0.5871 H       
  45 H45           -4.9475     5.5029    -0.8207 H       
  46 H46           -7.1484     1.8438    -0.8646 H       
  47 H47            1.3988     5.8720    -3.4048 H       
  48 H48            3.0618     5.8607    -4.0401 H       
  49 H49           -0.2262     4.3568    -4.3880 H       
  50 H50            0.3021     3.2877    -5.7097 H       
  51 H51            1.7199     2.0170    -4.1414 H       
  52 H52            0.0381     2.0508    -3.5560 H       
@<TRIPOS>BOND
   1    1    2 ar
   2    1    7 1
   3    1    5 ar
   4    2    3 ar
   5    2   30 1
   6    3   24 ar
   7    3   31 1
   8    4    5 ar
   9    4    6 1
  10    4   24 ar
  11    5   32 1
  12    6   19 ar
  13    6   20 ar
  14    7    8 1
  15    7   33 1
  16    7   34 1
  17    8    9 1
  18    8   10 am
  19    9   13 1
  20    9   29 1
  21    9   35 1
  22   10   11 1
  23   10   17 2
  24   11   12 2
  25   11   14 1
  26   12   16 1
  27   12   36 1
  28   13   26 1
  29   13   37 1
  30   13   38 1
  31   14   15 2
  32   15   16 1
  33   15   39 1
  34   16   18 1
  35   18   40 1
  36   18   41 1
  37   18   42 1
  38   19   23 ar
  39   19   43 1
  40   20   21 ar
  41   20   44 1
  42   21   22 ar
  43   21   45 1
  44   22   23 ar
  45   22   25 1
  46   23   46 1
  47   26   27 1
  48   26   47 1
  49   26   48 1
  50   27   28 1
  51   28   29 1
  52   28   49 1
  53   28   50 1
  54   29   51 1
  55   29   52 1

#	End of record

