#	Name: ASD05380115
#	Creating user name:	WinNT
#	Creation time:	15. 06. 2019 20:59

#	Modifying user name:	WinNT
#	Modification time:	15. 06. 2019 20:59

#	Program:	/corina/corina34_cracker 3.40 0067  02.08.2006

@<TRIPOS>MOLECULE
ASD05380115
  53   57    0    0    0
SMALL
NO_CHARGES


@<TRIPOS>ATOM
   1 C1            -0.2685     1.7425    -0.3089 C.ar    
   2 C2            -0.0028     0.3792    -0.5682 C.ar    
   3 C3             0.6336     2.7202    -0.7224 C.ar    
   4 C4             1.7833     2.3470    -1.3840 C.ar    
   5 C5             2.0476     1.0083    -1.6404 C.ar    
   6 C6             1.1689     0.0264    -1.2402 C.ar    
   7 N7            -0.8954    -0.5554    -0.1558 N.2     
   8 C8            -1.9848    -0.2271     0.4695 C.2     
   9 N9            -2.3211     1.0587     0.7610 N.am    
  10 C10           -1.5079     2.0806     0.4059 C.2     
  11 C11           -3.5169     1.3266     1.4397 C.ar    
  12 C12           -4.6866     1.5524     0.7239 C.ar    
  13 C13           -5.8961     1.8593     2.7681 C.ar    
  14 C14           -2.9249    -1.3259     0.8937 C.3     
  15 N15           -2.9262    -2.3852    -0.1183 N.pl3   
  16 C16           -4.0251    -3.2162    -0.2487 C.ar    
  17 N17           -5.0874    -3.0671     0.5360 N.ar    
  18 O18           -1.7960     3.2356     0.6603 O.2     
  19 C19           -4.0460    -4.2336    -1.2176 C.ar    
  20 C20           -5.1897    -5.0457    -1.3023 C.ar    
  21 N21           -6.2019    -4.8245    -0.4702 N.ar    
  22 C22           -6.1402    -3.8554     0.4187 C.ar    
  23 N23           -3.1789    -4.6652    -2.1648 N.2     
  24 C24           -3.7046    -5.6660    -2.8095 C.2     
  25 N25           -4.9451    -5.9390    -2.3145 N.pl3   
  26 C26           -5.8691     1.8172     1.3887 C.ar    
  27 C27           -4.7279     1.6284     3.4962 C.ar    
  28 C28           -3.5346     1.3611     2.8250 C.ar    
  29 C29            0.3540     4.1755    -0.4484 C.3     
  30 C30           -2.4644    -1.9019     2.2342 C.3     
  31 C31           -4.7539     1.6728     4.9739 C.2     
  32 N32           -5.9069     1.9366     5.6200 N.am    
  33 O33           -3.7353     1.4713     5.6060 O.2     
  34 H34            2.4847     3.1024    -1.7062 H       
  35 H35            2.9534     0.7336    -2.1605 H       
  36 H36            1.3853    -1.0117    -1.4450 H       
  37 H37           -4.6715     1.5211    -0.3556 H       
  38 H38           -6.8219     2.0669     3.2840 H       
  39 H39           -3.9319    -0.9222     0.9984 H       
  40 H40           -2.1568    -2.5040    -0.6970 H       
  41 H41           -6.9821    -3.6996     1.0771 H       
  42 H42           -3.2284    -6.2013    -3.6177 H       
  43 H43           -5.5445    -6.6372    -2.6211 H       
  44 H44           -6.7748     1.9922     0.8271 H       
  45 H45           -2.6276     1.1812     3.3831 H       
  46 H46            0.6740     4.4227     0.5638 H       
  47 H47            0.9005     4.7912    -1.1628 H       
  48 H48           -0.7147     4.3652    -0.5481 H       
  49 H49           -3.1254    -2.7182     2.5253 H       
  50 H50           -1.4452    -2.2764     2.1379 H       
  51 H51           -2.4943    -1.1214     2.9945 H       
  52 H52           -6.7197     2.0973     5.1156 H       
  53 H53           -5.9239     1.9657     6.5894 H       
@<TRIPOS>BOND
   1    1    2 ar
   2    1    3 ar
   3    1   10 1
   4    2    7 1
   5    2    6 ar
   6    3    4 ar
   7    3   29 1
   8    4    5 ar
   9    4   34 1
  10    5    6 ar
  11    5   35 1
  12    6   36 1
  13    7    8 2
  14    8    9 1
  15    8   14 1
  16    9   10 am
  17    9   11 1
  18   10   18 2
  19   11   12 ar
  20   11   28 ar
  21   12   26 ar
  22   12   37 1
  23   13   26 ar
  24   13   27 ar
  25   13   38 1
  26   14   15 1
  27   14   30 1
  28   14   39 1
  29   15   16 1
  30   15   40 1
  31   16   17 ar
  32   16   19 ar
  33   17   22 ar
  34   19   20 ar
  35   19   23 1
  36   20   21 ar
  37   20   25 1
  38   21   22 ar
  39   22   41 1
  40   23   24 2
  41   24   25 1
  42   24   42 1
  43   25   43 1
  44   26   44 1
  45   27   31 1
  46   27   28 ar
  47   28   45 1
  48   29   46 1
  49   29   47 1
  50   29   48 1
  51   30   49 1
  52   30   50 1
  53   30   51 1
  54   31   32 am
  55   31   33 2
  56   32   52 1
  57   32   53 1

#	End of record

