#	Name: ASD05730064
#	Creating user name:	WinNT
#	Creation time:	15. 06. 2019 21:02

#	Modifying user name:	WinNT
#	Modification time:	15. 06. 2019 21:02

#	Program:	/corina/corina34_cracker 3.40 0067  02.08.2006

@<TRIPOS>MOLECULE
ASD05730064
  71   77    0    0    0
SMALL
NO_CHARGES


@<TRIPOS>ATOM
   1 C1             0.0269     1.4738    -0.0157 C.2     
   2 C2             0.0352    -0.0037    -0.0169 C.ar    
   3 C3            -0.0563    -0.7047     1.1869 C.ar    
   4 C4            -0.0488    -2.0827     1.1825 C.ar    
   5 C5             0.0499    -2.7749    -0.0193 C.ar    
   6 C6             0.1412    -2.0796    -1.2199 C.ar    
   7 C7             0.1288    -0.7016    -1.2224 C.ar    
   8 N8             0.0577    -4.1715    -0.0205 N.pl3   
   9 C9            -0.5414    -4.8649    -1.0545 C.ar    
  10 N10           -0.4234    -6.1833    -1.0911 N.ar    
  11 C11           -0.9854    -6.8843    -2.0694 C.ar    
  12 C12           -1.7094    -6.1960    -3.0670 C.ar    
  13 C13           -1.8053    -4.7988    -2.9834 C.ar    
  14 N14           -1.2193    -4.1848    -1.9727 N.ar    
  15 N15           -0.8678    -8.2504    -2.1154 N.am    
  16 C16           -1.4394    -8.9562    -3.1100 C.2     
  17 C17           -2.1974    -8.2733    -4.1606 C.2     
  18 C18           -2.3209    -6.9102    -4.1225 C.2     
  19 C19           -0.1124    -8.9487    -1.0723 C.3     
  20 C20           -1.0388    -9.3161     0.0581 C.2     
  21 O21           -1.3249   -10.1686    -3.1361 O.2     
  22 C22           -2.8259    -9.0506    -5.2542 C.ar    
  23 C23           -3.8596    -9.9434    -4.9739 C.ar    
  24 C24            1.0275     2.1098     0.5537 C.2     
  25 C25           -2.3899    -8.8878    -6.5690 C.ar    
  26 C26           -2.9793    -9.6140    -7.5832 C.ar    
  27 C27           -4.0012   -10.5023    -7.2982 C.ar    
  28 C28           -4.4415   -10.6642    -5.9969 C.ar    
  29 C29            1.1156     3.6076     0.6176 C.3     
  30 N30            0.1990     4.2127    -0.3569 N.3     
  31 C31           -1.1522     3.6484    -0.2047 C.3     
  32 C32           -1.1218     2.1890    -0.6707 C.3     
  33 N33           -1.6991   -10.4214     0.1422 N.2     
  34 C34           -2.4663   -10.5839     1.2013 C.2     
  35 C35           -2.4523    -9.5585     2.0583 C.2     
  36 S36           -1.3612    -8.3319     1.4185 S.3     
  37 S37           -2.4303    -9.4094    -9.2449 S.o     
  38 C38           -1.1542   -10.6154    -9.3921 C.ar    
  39 O39           -3.4914    -9.9725   -10.0039 O.2     
  40 C40           -1.4412   -11.9043    -9.8149 C.ar    
  41 C41            0.1616   -10.2966    -9.0933 C.ar    
  42 C42            1.1357   -11.2687    -9.2204 C.ar    
  43 N43            0.8254   -12.4863    -9.6207 N.ar    
  44 C44           -0.4143   -12.8235    -9.9183 C.ar    
  45 H45           -0.1326    -0.1676     2.1208 H       
  46 H46           -0.1192    -2.6255     2.1135 H       
  47 H47            0.2180    -2.6201    -2.1518 H       
  48 H48            0.1997    -0.1621    -2.1553 H       
  49 H49            0.4838    -4.6547     0.7047 H       
  50 H50           -2.3504    -4.2379    -3.7282 H       
  51 H51           -2.8762    -6.3885    -4.8879 H       
  52 H52            0.3301    -9.8538    -1.4883 H       
  53 H53            0.6773    -8.2973    -0.6978 H       
  54 H54           -4.2040   -10.0708    -3.9583 H       
  55 H55            1.8225     1.5279     0.9961 H       
  56 H56           -1.5926    -8.1945    -6.7928 H       
  57 H57           -4.4596   -11.0686    -8.0954 H       
  58 H58           -5.2394   -11.3590    -5.7805 H       
  59 H59            0.8491     3.9424     1.6201 H       
  60 H60            2.1362     3.9190     0.3950 H       
  61 H61            0.1839     5.2173    -0.2638 H       
  62 H62           -1.4532     3.6961     0.8418 H       
  63 H63           -1.8557     4.2125    -0.8170 H       
  64 H64           -1.0064     2.1565    -1.7541 H       
  65 H65           -2.0548     1.6996    -0.3912 H       
  66 H66           -3.0581   -11.4726     1.3633 H       
  67 H67           -3.0086    -9.4947     2.9818 H       
  68 H68           -2.4544   -12.1866   -10.0601 H       
  69 H69            0.4222    -9.3010    -8.7657 H       
  70 H70            2.1630   -11.0284    -8.9896 H       
  71 H71           -0.6302   -13.8307   -10.2428 H       
@<TRIPOS>BOND
   1    1    2 1
   2    1   24 2
   3    1   32 1
   4    2    3 ar
   5    2    7 ar
   6    3    4 ar
   7    3   45 1
   8    4    5 ar
   9    4   46 1
  10    5    6 ar
  11    5    8 1
  12    6    7 ar
  13    6   47 1
  14    7   48 1
  15    8    9 1
  16    8   49 1
  17    9   10 ar
  18    9   14 ar
  19   10   11 ar
  20   11   12 ar
  21   11   15 1
  22   12   13 ar
  23   12   18 1
  24   13   14 ar
  25   13   50 1
  26   15   16 am
  27   15   19 1
  28   16   17 1
  29   16   21 2
  30   17   18 2
  31   17   22 1
  32   18   51 1
  33   19   20 1
  34   19   52 1
  35   19   53 1
  36   20   33 2
  37   20   36 1
  38   22   25 ar
  39   22   23 ar
  40   23   28 ar
  41   23   54 1
  42   24   29 1
  43   24   55 1
  44   25   26 ar
  45   25   56 1
  46   26   27 ar
  47   26   37 1
  48   27   28 ar
  49   27   57 1
  50   28   58 1
  51   29   30 1
  52   29   59 1
  53   29   60 1
  54   30   31 1
  55   30   61 1
  56   31   32 1
  57   31   62 1
  58   31   63 1
  59   32   64 1
  60   32   65 1
  61   33   34 1
  62   34   35 2
  63   34   66 1
  64   35   36 1
  65   35   67 1
  66   37   38 1
  67   37   39 2
  68   38   40 ar
  69   38   41 ar
  70   40   44 ar
  71   40   68 1
  72   41   42 ar
  73   41   69 1
  74   42   43 ar
  75   42   70 1
  76   43   44 ar
  77   44   71 1

#	End of record

