#	Name: ASD04230008
#	Creating user name:	WinNT
#	Creation time:	15. 06. 2019 20:48

#	Modifying user name:	WinNT
#	Modification time:	15. 06. 2019 20:48

#	Program:	/corina/corina34_cracker 3.40 0067  02.08.2006

@<TRIPOS>MOLECULE
ASD04230008
  48   52    0    0    0
SMALL
NO_CHARGES


@<TRIPOS>ATOM
   1 C1             1.4931     4.6796     1.7090 C.ar    
   2 C2             2.4897     5.3985     2.3639 C.ar    
   3 C3             3.7657     4.8832     2.4670 C.ar    
   4 C4             4.0579     3.6353     1.8995 C.ar    
   5 C5             3.0375     2.8995     1.2676 C.ar    
   6 C6             1.7626     3.4403     1.1680 C.ar    
   7 C7             5.3735     3.1070     1.9617 C.2     
   8 C8             5.6537     1.9698     1.2156 C.2     
   9 C9             4.5632     1.4190     0.3904 C.2     
  10 O10            3.2916     1.6614     0.7793 O.3     
  11 C11            6.9845     1.3407     1.2469 C.2     
  12 N12            7.2258     0.2374     0.5114 N.am    
  13 O13            7.8661     1.8167     1.9365 O.2     
  14 C14            8.5178    -0.2950     0.4523 C.ar    
  15 C15            8.6998    -1.6700     0.3705 C.ar    
  16 C16            9.9752    -2.1996     0.3119 C.ar    
  17 C17           11.0750    -1.3656     0.3344 C.ar    
  18 C18           10.9018     0.0151     0.4159 C.ar    
  19 C19            9.6177     0.5499     0.4697 C.ar    
  20 C20           12.0832     0.9130     0.4407 C.2     
  21 O21            4.8004     0.7669    -0.6091 O.2     
  22 C22           13.3814     0.5274     0.2943 C.2     
  23 N23           14.1475     1.6560     0.3795 N.pl3   
  24 C24           13.2946     2.7116     0.5773 C.2     
  25 N25           12.0551     2.2449     0.6055 N.2     
  26 C26           15.4953     1.8611     0.3048 C.2     
  27 C27           16.0095     3.1030     0.4245 C.2     
  28 C28           15.1618     4.2046     0.6276 C.2     
  29 C29           13.8171     4.0153     0.7030 C.2     
  30 O30            2.2046     6.6134     2.9035 O.3     
  31 C31            0.8644     7.0883     2.7608 C.3     
  32 H32            0.4992     5.0943     1.6281 H       
  33 H33            4.5354     5.4388     2.9820 H       
  34 H34            0.9809     2.8893     0.6663 H       
  35 H35            6.1332     3.5749     2.5702 H       
  36 H36            6.5034    -0.1875     0.0230 H       
  37 H37            7.8426    -2.3267     0.3529 H       
  38 H38           10.1116    -3.2691     0.2487 H       
  39 H39           12.0700    -1.7831     0.2892 H       
  40 H40            9.4784     1.6190     0.5329 H       
  41 H41           13.7382    -0.4803     0.1402 H       
  42 H42           16.1562     1.0213     0.1488 H       
  43 H43           17.0776     3.2506     0.3641 H       
  44 H44           15.5760     5.1974     0.7232 H       
  45 H45           13.1560     4.8551     0.8587 H       
  46 H46            0.1781     6.3880     3.2369 H       
  47 H47            0.7729     8.0656     3.2346 H       
  48 H48            0.6200     7.1735     1.7019 H       
@<TRIPOS>BOND
   1    1    2 ar
   2    1    6 ar
   3    1   32 1
   4    2    3 ar
   5    2   30 1
   6    3    4 ar
   7    3   33 1
   8    4    5 ar
   9    4    7 1
  10    5    6 ar
  11    5   10 1
  12    6   34 1
  13    7    8 2
  14    7   35 1
  15    8    9 1
  16    8   11 1
  17    9   10 1
  18    9   21 2
  19   11   12 am
  20   11   13 2
  21   12   14 1
  22   12   36 1
  23   14   15 ar
  24   14   19 ar
  25   15   16 ar
  26   15   37 1
  27   16   17 ar
  28   16   38 1
  29   17   18 ar
  30   17   39 1
  31   18   19 ar
  32   18   20 1
  33   19   40 1
  34   20   22 2
  35   20   25 1
  36   22   23 1
  37   22   41 1
  38   23   24 1
  39   23   26 1
  40   24   25 2
  41   24   29 1
  42   26   27 2
  43   26   42 1
  44   27   28 1
  45   27   43 1
  46   28   29 2
  47   28   44 1
  48   29   45 1
  49   30   31 1
  50   31   46 1
  51   31   47 1
  52   31   48 1

#	End of record

