#	Name: ASD01885163
#	Creating user name:	WinNT
#	Creation time:	15. 06. 2019 19:49

#	Modifying user name:	WinNT
#	Modification time:	15. 06. 2019 19:49

#	Program:	/corina/corina34_cracker 3.40 0067  02.08.2006

@<TRIPOS>MOLECULE
ASD01885163
  55   59    0    0    0
SMALL
NO_CHARGES


@<TRIPOS>ATOM
   1 C1            -0.0170     1.4050     0.0098 C.2     
   2 C2             1.1991    -0.6521    -0.0129 C.2     
   3 C3             2.3930     0.0893    -0.0203 C.2     
   4 C4             2.3588     1.4383    -0.0121 C.2     
   5 N5             1.1665     2.1012     0.0022 N.pl3   
   6 C6             0.8241     3.4179     0.0118 C.2     
   7 N7            -0.4823     3.4846     0.0242 N.2     
   8 N8            -0.9895     2.3020     0.0186 N.2     
   9 C9             1.7760     4.5862     0.0091 C.3     
  10 C10            1.2438    -2.1584    -0.0214 C.3     
  11 C11            2.0853     4.9887    -1.4342 C.3     
  12 N12            1.3658    -2.6368    -1.4050 N.3     
  13 C13            1.6496    -4.0771    -1.4406 C.3     
  14 C14            1.9136    -4.5108    -2.8843 C.3     
  15 C15            0.6848    -4.1924    -3.7406 C.3     
  16 C16            0.3819    -2.6944    -3.6475 C.3     
  17 C17            0.1623    -2.3134    -2.1817 C.3     
  18 C18           -0.2839    -4.3695    -6.0164 C.ar    
  19 C19            0.0021    -0.0041     0.0020 C.2     
  20 C20            2.9455     6.2352    -1.6511 C.3     
  21 C21            3.5315     4.8463    -1.9129 C.3     
  22 C22           -0.5278    -3.1501    -6.6195 C.ar    
  23 C23           -1.6753    -2.9668    -7.3726 C.ar    
  24 C24           -2.5782    -4.0053    -7.5213 C.ar    
  25 C25           -2.3329    -5.2261    -6.9168 C.ar    
  26 C26           -1.1820    -5.4089    -6.1688 C.ar    
  27 C27            0.9652    -4.5679    -5.1970 C.3     
  28 Cl28          -1.4832    -0.9027     0.0119 Cl      
  29 F29           -1.9136    -1.7745    -7.9616 F       
  30 F30           -3.2136    -6.2405    -7.0607 F       
  31 H31            3.3434    -0.4236    -0.0323 H       
  32 H32            3.2826     1.9976    -0.0175 H       
  33 H33            1.3201     5.4274     0.5312 H       
  34 H34            2.6999     4.3031     0.5133 H       
  35 H35            2.1016    -2.4997     0.5580 H       
  36 H36            0.3278    -2.5516     0.4195 H       
  37 H37            1.2938     4.7914    -2.1572 H       
  38 H38            2.5281    -4.2894    -0.8313 H       
  39 H39            0.7938    -4.6258    -1.0474 H       
  40 H40            2.7778    -3.9726    -3.2737 H       
  41 H41            2.1088    -5.5828    -2.9124 H       
  42 H42           -0.1708    -4.7604    -3.3753 H       
  43 H43            1.2220    -2.1276    -4.0489 H       
  44 H44           -0.5173    -2.4686    -4.2208 H       
  45 H45           -0.6866    -2.8703    -1.7850 H       
  46 H46           -0.0395    -1.2446    -2.1106 H       
  47 H47            2.7203     6.8578    -2.5170 H       
  48 H48            3.2911     6.7685    -0.7655 H       
  49 H49            4.2626     4.4659    -1.1995 H       
  50 H50            3.6917     4.5551    -2.9510 H       
  51 H51            0.1767    -2.3398    -6.5030 H       
  52 H52           -3.4736    -3.8631    -8.1082 H       
  53 H53           -0.9904    -6.3614    -5.6971 H       
  54 H54            1.7611    -3.9344    -5.5888 H       
  55 H55            1.2727    -5.6122    -5.2503 H       
@<TRIPOS>BOND
   1    1   19 1
   2    1    5 1
   3    1    8 2
   4    2    3 1
   5    2   10 1
   6    2   19 2
   7    3    4 2
   8    3   31 1
   9    4    5 1
  10    4   32 1
  11    5    6 1
  12    6    7 2
  13    6    9 1
  14    7    8 1
  15    9   11 1
  16    9   33 1
  17    9   34 1
  18   10   12 1
  19   10   35 1
  20   10   36 1
  21   11   20 1
  22   11   21 1
  23   11   37 1
  24   12   13 1
  25   12   17 1
  26   13   14 1
  27   13   38 1
  28   13   39 1
  29   14   15 1
  30   14   40 1
  31   14   41 1
  32   15   16 1
  33   15   27 1
  34   15   42 1
  35   16   17 1
  36   16   43 1
  37   16   44 1
  38   17   45 1
  39   17   46 1
  40   18   22 ar
  41   18   27 1
  42   18   26 ar
  43   19   28 1
  44   20   21 1
  45   20   47 1
  46   20   48 1
  47   21   49 1
  48   21   50 1
  49   22   23 ar
  50   22   51 1
  51   23   24 ar
  52   23   29 1
  53   24   25 ar
  54   24   52 1
  55   25   26 ar
  56   25   30 1
  57   26   53 1
  58   27   54 1
  59   27   55 1

#	End of record

