#	Name: ASD03730267
#	Creating user name:	WinNT
#	Creation time:	15. 06. 2019 20:44

#	Modifying user name:	WinNT
#	Modification time:	15. 06. 2019 20:44

#	Program:	/corina/corina34_cracker 3.40 0067  02.08.2006

@<TRIPOS>MOLECULE
ASD03730267
  56   61    0    0    0
SMALL
NO_CHARGES


@<TRIPOS>ATOM
   1 O1            -0.4314     1.1604     1.1824 O.3     
   2 C2            -0.3668    -0.2764     1.2487 C.3     
   3 O3             0.7316    -0.6099     0.3798 O.3     
   4 C4             1.5540     0.4802     0.3955 C.ar    
   5 C5             0.8380     1.5687     0.8880 C.ar    
   6 C6             2.8778     0.6337     0.0247 C.ar    
   7 C7             3.5028     1.8718     0.1384 C.ar    
   8 C8             2.7748     2.9540     0.6238 C.ar    
   9 C9             1.4563     2.8027     0.9995 C.ar    
  10 O10            4.7866     2.2300    -0.1507 O.3     
  11 C11            3.7024     4.1393     0.6019 C.3     
  12 C12            4.8618     3.6626    -0.2837 C.3     
  13 N13            3.1311     6.3157     1.0004 N.am    
  14 C14            3.0419     5.3679     0.0459 C.2     
  15 C15            4.1687     4.5255     1.9740 C.ar    
  16 C16            4.8411     3.8513     2.9839 C.ar    
  17 C17            5.1375     4.5077     4.1781 C.ar    
  18 C18            4.7587     5.8249     4.3467 C.ar    
  19 C19            4.0907     6.4953     3.3422 C.ar    
  20 C20            3.7881     5.8520     2.1432 C.ar    
  21 O21            2.5295     5.4848    -1.0472 O.2     
  22 C22            2.6006     7.6736     0.8565 C.3     
  23 C23            1.1550     7.7121     1.3563 C.3     
  24 C24            0.6010     9.1303     1.2060 C.3     
  25 C25           -0.8446     9.1687     1.7058 C.3     
  26 C26           -1.3987    10.5869     1.5556 C.3     
  27 C27            6.1360     2.0837     1.7845 C.ar    
  28 C28            5.2431     2.4355     2.7936 C.ar    
  29 C29            4.7316     1.4347     3.6248 C.ar    
  30 C30            5.1368     0.1301     3.4078 C.ar    
  31 C31            6.0292    -0.1405     2.3823 C.ar    
  32 N32            6.4949     0.8274     1.6136 N.ar    
  33 F33            6.4288    -1.4128     2.1661 F       
  34 H34           -0.1620    -0.6040     2.2679 H       
  35 H35           -1.2931    -0.7187     0.8820 H       
  36 H36            3.4301    -0.2131    -0.3552 H       
  37 H37            0.9048     3.6488     1.3819 H       
  38 H38            5.8145     4.0367     0.0912 H       
  39 H39            4.7069     3.9639    -1.3197 H       
  40 H40            5.6604     3.9882     4.9675 H       
  41 H41            4.9872     6.3343     5.2712 H       
  42 H42            3.8002     7.5254     3.4862 H       
  43 H43            3.2063     8.3644     1.4431 H       
  44 H44            2.6300     7.9659    -0.1932 H       
  45 H45            0.5493     7.0213     0.7697 H       
  46 H46            1.1256     7.4198     2.4060 H       
  47 H47            1.2067     9.8210     1.7926 H       
  48 H48            0.6304     9.4225     0.1564 H       
  49 H49           -1.4503     8.4779     1.1192 H       
  50 H50           -0.8740     8.8764     2.7555 H       
  51 H51           -0.7930    11.2776     2.1421 H       
  52 H52           -1.3692    10.8792     0.5059 H       
  53 H53           -2.4285    10.6143     1.9116 H       
  54 H54            6.5346     2.8472     1.1329 H       
  55 H55            4.0375     1.6742     4.4169 H       
  56 H56            4.7624    -0.6688     4.0308 H       
@<TRIPOS>BOND
   1    1    2 1
   2    1    5 1
   3    2    3 1
   4    2   34 1
   5    2   35 1
   6    3    4 1
   7    4    5 ar
   8    4    6 ar
   9    5    9 ar
  10    6    7 ar
  11    6   36 1
  12    7    8 ar
  13    7   10 1
  14    8    9 ar
  15    8   11 1
  16    9   37 1
  17   10   12 1
  18   11   12 1
  19   11   14 1
  20   11   15 1
  21   12   38 1
  22   12   39 1
  23   13   14 am
  24   13   20 1
  25   13   22 1
  26   14   21 2
  27   15   16 ar
  28   15   20 ar
  29   16   17 ar
  30   16   28 1
  31   17   18 ar
  32   17   40 1
  33   18   19 ar
  34   18   41 1
  35   19   20 ar
  36   19   42 1
  37   22   23 1
  38   22   43 1
  39   22   44 1
  40   23   24 1
  41   23   45 1
  42   23   46 1
  43   24   25 1
  44   24   47 1
  45   24   48 1
  46   25   26 1
  47   25   49 1
  48   25   50 1
  49   26   51 1
  50   26   52 1
  51   26   53 1
  52   27   28 ar
  53   27   32 ar
  54   27   54 1
  55   28   29 ar
  56   29   30 ar
  57   29   55 1
  58   30   31 ar
  59   30   56 1
  60   31   32 ar
  61   31   33 1

#	End of record

