#	Name: ASD01913333
#	Creating user name:	WinNT
#	Creation time:	15. 06. 2019 20:01

#	Modifying user name:	WinNT
#	Modification time:	15. 06. 2019 20:01

#	Program:	/corina/corina34_cracker 3.40 0067  02.08.2006

@<TRIPOS>MOLECULE
ASD01913333
  29   31    0    0    0
SMALL
NO_CHARGES


@<TRIPOS>ATOM
   1 C1            -0.0166     1.3764     0.0096 C.2     
   2 C2             0.0021    -0.0041     0.0020 C.2     
   3 C3             1.2499    -0.6727    -0.0135 C.2     
   4 N4             2.3635     0.0159    -0.0200 N.2     
   5 C5             2.3515     1.3566    -0.0127 C.2     
   6 N6             1.1686     2.0507     0.0019 N.pl3   
   7 C7            -1.2215    -0.7480     0.0102 C.1     
   8 C8            -2.2246    -1.3579     0.0169 C.1     
   9 C9            -3.4482    -2.1018     0.0250 C.ar    
  10 C10           -4.6014    -4.2096     0.0247 C.ar    
  11 C11           -5.8502    -2.1554     0.0423 C.ar    
  12 C12           -4.6755    -1.4335     0.0349 C.ar    
  13 C13            3.3713     2.2994    -0.0170 C.2     
  14 C14            2.7833     3.5556    -0.0048 C.2     
  15 N15            1.4769     3.4160     0.0064 N.2     
  16 C16            3.5233     4.8684    -0.0040 C.3     
  17 C17           -3.4199    -3.4990     0.0172 C.ar    
  18 C18           -5.8155    -3.5410     0.0399 C.ar    
  19 F19           -6.9699    -4.2429     0.0471 F       
  20 H20           -0.9539     1.9131     0.0170 H       
  21 H21            1.2833    -1.7522    -0.0196 H       
  22 H22           -4.5808    -5.2894     0.0225 H       
  23 H23           -6.7993    -1.6401     0.0503 H       
  24 H24           -4.7038    -0.3539     0.0372 H       
  25 H25            4.4311     2.0918    -0.0275 H       
  26 H26            3.6927     5.1907    -1.0315 H       
  27 H27            2.9310     5.6191     0.5192 H       
  28 H28            4.4815     4.7451     0.5007 H       
  29 H29           -2.4745    -4.0210     0.0051 H       
@<TRIPOS>BOND
   1    1    2 2
   2    1    6 1
   3    1   20 1
   4    2    3 1
   5    2    7 1
   6    3    4 2
   7    3   21 1
   8    4    5 1
   9    5    6 1
  10    5   13 2
  11    6   15 1
  12    7    8 3
  13    8    9 1
  14    9   17 ar
  15    9   12 ar
  16   10   18 ar
  17   10   17 ar
  18   10   22 1
  19   11   12 ar
  20   11   18 ar
  21   11   23 1
  22   12   24 1
  23   13   14 1
  24   13   25 1
  25   14   15 2
  26   14   16 1
  27   16   26 1
  28   16   27 1
  29   16   28 1
  30   17   29 1
  31   18   19 1

#	End of record

