#	Name: ASD08830179
#	Creating user name:	WinNT
#	Creation time:	15. 06. 2019 21:19

#	Modifying user name:	WinNT
#	Modification time:	15. 06. 2019 21:19

#	Program:	/corina/corina34_cracker 3.40 0067  02.08.2006

@<TRIPOS>MOLECULE
ASD08830179
  38   40    0    0    0
SMALL
NO_CHARGES


@<TRIPOS>ATOM
   1 C1            -0.0179     1.4664     0.0101 C.ar    
   2 C2             0.0021    -0.0041     0.0020 C.2     
   3 C3            -1.2926    -0.7753     0.0102 C.3     
   4 C4            -0.9927    -2.2755    -0.0007 C.3     
   5 N5            -2.2547    -3.0273     0.0073 N.3     
   6 O6             1.0604    -0.5961    -0.0113 O.2     
   7 C7            -1.2492     2.1505     0.0314 C.ar    
   8 C8            -2.0181    -4.4568    -0.2410 C.3     
   9 C9            -3.3490    -5.2097    -0.1649 C.3     
  10 O10           -4.2665    -4.6418    -1.1035 O.3     
  11 C11           -4.5205    -3.2506    -0.8906 C.3     
  12 C12           -3.2015    -2.4779    -0.9741 C.3     
  13 C13            1.1773     2.1737     0.0025 C.ar    
  14 C14            1.1471     3.5744     0.0108 C.ar    
  15 C15           -0.0984     4.2521     0.0268 C.ar    
  16 C16           -1.2926     3.5059     0.0392 C.ar    
  17 C17            2.3364     4.3303     0.0040 C.ar    
  18 C18            2.2345     5.6923     0.0132 C.ar    
  19 C19            0.9784     6.2946     0.0288 C.ar    
  20 N20           -0.1262     5.5880     0.0355 N.ar    
  21 H21           -1.8592    -0.5245     0.9070 H       
  22 H22           -1.8762    -0.5150    -0.8728 H       
  23 H23           -0.4261    -2.5263    -0.8975 H       
  24 H24           -0.4091    -2.5358     0.8824 H       
  25 H25           -2.1710     1.5880     0.0413 H       
  26 H26           -1.5824    -4.5869    -1.2316 H       
  27 H27           -1.3346    -4.8488     0.5123 H       
  28 H28           -3.1869    -6.2606    -0.4046 H       
  29 H29           -3.7584    -5.1242     0.8417 H       
  30 H30           -5.2057    -2.8846    -1.6552 H       
  31 H31           -4.9640    -3.1082     0.0948 H       
  32 H32           -3.3819    -1.4252    -0.7560 H       
  33 H33           -2.7847    -2.5763    -1.9764 H       
  34 H34            2.1211     1.6489    -0.0093 H       
  35 H35           -2.2453     4.0144     0.0511 H       
  36 H36            3.3017     3.8461    -0.0078 H       
  37 H37            3.1263     6.3014     0.0087 H       
  38 H38            0.9127     7.3726     0.0362 H       
@<TRIPOS>BOND
   1    1    2 1
   2    1   13 ar
   3    1    7 ar
   4    2    3 1
   5    2    6 2
   6    3    4 1
   7    3   21 1
   8    3   22 1
   9    4    5 1
  10    4   23 1
  11    4   24 1
  12    5    8 1
  13    5   12 1
  14    7   16 ar
  15    7   25 1
  16    8    9 1
  17    8   26 1
  18    8   27 1
  19    9   10 1
  20    9   28 1
  21    9   29 1
  22   10   11 1
  23   11   12 1
  24   11   30 1
  25   11   31 1
  26   12   32 1
  27   12   33 1
  28   13   14 ar
  29   13   34 1
  30   14   15 ar
  31   14   17 ar
  32   15   16 ar
  33   15   20 ar
  34   16   35 1
  35   17   18 ar
  36   17   36 1
  37   18   19 ar
  38   18   37 1
  39   19   20 ar
  40   19   38 1

#	End of record

