#	Name: ASD00843620
#	Creating user name:	WinNT
#	Creation time:	15. 06. 2019 18:47

#	Modifying user name:	WinNT
#	Modification time:	15. 06. 2019 18:47

#	Program:	/corina/corina34_cracker 3.40 0067  02.08.2006

@<TRIPOS>MOLECULE
ASD00843620
  90   95    0    0    0
SMALL
NO_CHARGES


@<TRIPOS>ATOM
   1 F1             5.7153    -2.4891    -1.9140 F       
   2 N2             0.9497     1.0795    -0.2073 N.ar    
   3 C3             1.1141    -0.1991    -0.5026 C.ar    
   4 C4             0.9530    -1.1768     0.4710 C.ar    
   5 C5             0.6173    -0.7960     1.7583 C.ar    
   6 C6             0.4537     0.5560     2.0275 C.ar    
   7 C7             0.6295     1.4732     1.0109 C.ar    
   8 C8             1.1408    -2.6326     0.1298 C.3     
   9 C9             0.7731    -3.5058     1.3105 C.2     
  10 C10            0.3037    -3.0069    -1.0950 C.3     
  11 C11           -1.1368    -2.6378    -0.8508 C.2     
  12 N12           -2.0809    -2.9750    -1.7515 N.am    
  13 O13           -1.4465    -2.0372     0.1563 O.2     
  14 C14           -3.4698    -2.5261    -1.5839 C.3     
  15 C15           -4.3932    -3.7470    -1.6433 C.3     
  16 C16           -4.1333    -4.5155    -2.9410 C.3     
  17 C17           -2.6834    -5.0049    -2.9644 C.3     
  18 C18           -1.7395    -3.7935    -2.9230 C.3     
  19 N19           -5.0403    -5.6686    -3.0170 N.3     
  20 C20           -4.9022    -6.3633    -4.3046 C.3     
  21 C21           -5.8029    -7.6007    -4.3128 C.3     
  22 N22           -7.1957    -7.1910    -4.0854 N.3     
  23 C23           -7.3338    -6.4963    -2.7978 C.3     
  24 C24           -6.4331    -5.2590    -2.7896 C.3     
  25 C25           -8.1027    -8.3441    -4.1613 C.3     
  26 O26           -0.3150    -3.5785     1.8414 O.2     
  27 N27            1.8784    -4.1854     1.6595 N.am    
  28 C28            2.6019    -2.9357    -0.1111 C.ar    
  29 C29            2.9693    -3.8740     0.8452 C.ar    
  30 C30            3.5140    -2.4716    -1.0322 C.ar    
  31 C31            4.8172    -2.9415    -1.0117 C.ar    
  32 C32            5.1962    -3.8782    -0.0620 C.ar    
  33 C33            4.2806    -4.3436     0.8621 C.ar    
  34 F34            6.4665    -4.3377    -0.0403 F       
  35 C35            1.5289    -6.8497     2.2542 C.ar    
  36 C36            2.5252    -7.6734     1.7636 C.ar    
  37 C37            0.2111    -7.2679     2.2351 C.ar    
  38 C38           -0.1132    -8.5103     1.7255 C.ar    
  39 C39            0.8847    -9.3386     1.2326 C.ar    
  40 C40            2.2061    -8.9165     1.2525 C.ar    
  41 O41            0.5683   -10.5614     0.7311 O.3     
  42 H42            3.5538    -7.3444     1.7796 H       
  43 C43            1.6468   -11.3605     0.2409 C.3     
  44 C44           -9.4944    -7.9310    -3.6782 C.3     
  45 S45            1.9400    -5.2675     2.9115 S.o2    
  46 O46            3.3015    -5.3408     3.3119 O.2     
  47 O47            0.8870    -4.9154     3.7983 O.2     
  48 O48            1.4427    -0.5594    -1.7687 O.3     
  49 C49            1.5474     0.4883    -2.7349 C.3     
  50 C50            2.0241    -0.0928    -4.0676 C.3     
  51 F51            3.2339    -0.7686    -3.8755 F       
  52 F52            1.0642    -0.9850    -4.5573 F       
  53 H53            0.4851    -1.5339     2.5358 H       
  54 H54            0.1914     0.8868     3.0216 H       
  55 H55            0.5039     2.5262     1.2151 H       
  56 H56            0.6742    -2.4678    -1.9669 H       
  57 H57            0.3788    -4.0798    -1.2723 H       
  58 H58           -3.5800    -2.0313    -0.6190 H       
  59 H59           -3.7288    -1.8328    -2.3841 H       
  60 H60           -4.1940    -4.3957    -0.7903 H       
  61 H61           -5.4323    -3.4190    -1.6167 H       
  62 H62           -4.3088    -3.8590    -3.7932 H       
  63 H63           -2.5003    -5.6417    -2.0989 H       
  64 H64           -2.5056    -5.5720    -3.8781 H       
  65 H65           -1.8588    -3.2060    -3.8332 H       
  66 H66           -0.7083    -4.1365    -2.8395 H       
  67 H67           -5.1969    -5.6937    -5.1126 H       
  68 H68           -3.8649    -6.6676    -4.4442 H       
  69 H69           -5.7240    -8.1015    -5.2777 H       
  70 H70           -5.4907    -8.2829    -3.5220 H       
  71 H71           -8.3711    -6.1920    -2.6581 H       
  72 H72           -7.0391    -7.1660    -1.9898 H       
  73 H73           -6.5120    -4.7581    -1.8247 H       
  74 H74           -6.7453    -4.5767    -3.5803 H       
  75 H75           -8.1642    -8.6906    -5.1930 H       
  76 H76           -7.7227    -9.1475    -3.5302 H       
  77 H77            3.2138    -1.7423    -1.7701 H       
  78 H78            4.5823    -5.0728     1.5993 H       
  79 H79           -0.5653    -6.6229     2.6193 H       
  80 H80           -1.1426    -8.8367     1.7111 H       
  81 H81            2.9847    -9.5596     0.8696 H       
  82 H82            2.3551   -11.5491     1.0477 H       
  83 H83            1.2573   -12.3086    -0.1297 H       
  84 H84            2.1507   -10.8332    -0.5691 H       
  85 H85          -10.1674    -8.7866    -3.7346 H       
  86 H86           -9.4329    -7.5845    -2.6466 H       
  87 H87           -9.8745    -7.1276    -4.3093 H       
  88 H88            0.5723     0.9561    -2.8706 H       
  89 H89            2.2626     1.2335    -2.3868 H       
  90 H90            2.1690     0.7149    -4.7850 H       
@<TRIPOS>BOND
   1    1   31 1
   2    2    3 ar
   3    2    7 ar
   4    3    4 ar
   5    3   48 1
   6    4    5 ar
   7    4    8 1
   8    5    6 ar
   9    5   53 1
  10    6    7 ar
  11    6   54 1
  12    7   55 1
  13    8    9 1
  14    8   10 1
  15    8   28 1
  16    9   26 2
  17    9   27 am
  18   10   11 1
  19   10   56 1
  20   10   57 1
  21   11   12 am
  22   11   13 2
  23   12   14 1
  24   12   18 1
  25   14   15 1
  26   14   58 1
  27   14   59 1
  28   15   16 1
  29   15   60 1
  30   15   61 1
  31   16   17 1
  32   16   19 1
  33   16   62 1
  34   17   18 1
  35   17   63 1
  36   17   64 1
  37   18   65 1
  38   18   66 1
  39   19   20 1
  40   19   24 1
  41   20   21 1
  42   20   67 1
  43   20   68 1
  44   21   22 1
  45   21   69 1
  46   21   70 1
  47   22   23 1
  48   22   25 1
  49   23   24 1
  50   23   71 1
  51   23   72 1
  52   24   73 1
  53   24   74 1
  54   25   44 1
  55   25   75 1
  56   25   76 1
  57   27   45 am
  58   27   29 1
  59   28   29 ar
  60   28   30 ar
  61   29   33 ar
  62   30   31 ar
  63   30   77 1
  64   31   32 ar
  65   32   33 ar
  66   32   34 1
  67   33   78 1
  68   35   36 ar
  69   35   37 ar
  70   35   45 1
  71   36   42 1
  72   36   40 ar
  73   37   38 ar
  74   37   79 1
  75   38   39 ar
  76   38   80 1
  77   39   40 ar
  78   39   41 1
  79   40   81 1
  80   41   43 1
  81   43   82 1
  82   43   83 1
  83   43   84 1
  84   44   85 1
  85   44   86 1
  86   44   87 1
  87   45   46 2
  88   45   47 2
  89   48   49 1
  90   49   50 1
  91   49   88 1
  92   49   89 1
  93   50   51 1
  94   50   52 1
  95   50   90 1

#	End of record

