#	Name: ASD03090524
#	Creating user name:	WinNT
#	Creation time:	15. 06. 2019 20:29

#	Modifying user name:	WinNT
#	Modification time:	15. 06. 2019 20:29

#	Program:	/corina/corina34_cracker 3.40 0067  02.08.2006

@<TRIPOS>MOLECULE
ASD03090524
  36   38    0    0    0
SMALL
NO_CHARGES


@<TRIPOS>ATOM
   1 C1            -0.0465     1.4850     0.2239 C.2     
   2 C2            -0.0457    -0.0219     0.2059 C.3     
   3 O3             0.9869     2.0897     0.4175 O.2     
   4 N4            -1.1946     2.1607     0.0195 N.am    
   5 C5            -1.2153     3.5552     0.1328 C.ar    
   6 C6            -0.1181     4.3028    -0.2744 C.ar    
   7 C7            -0.1417     5.6791    -0.1612 C.ar    
   8 C8            -1.2563     6.3127     0.3569 C.ar    
   9 C9            -2.3503     5.5711     0.7636 C.ar    
  10 C10           -2.3354     4.1950     0.6473 C.ar    
  11 C11           -1.2786     7.8146     0.4789 C.3     
  12 F12           -1.7973     8.3703    -0.6955 F       
  13 F13           -2.0822     8.1824     1.5634 F       
  14 F14            0.0231     8.2853     0.6823 F       
  15 N15            5.1263    -1.9111     1.3929 N.pl3   
  16 C16            5.0419    -1.9836     2.7567 C.2     
  17 C17            3.8243    -1.5892     3.1615 C.2     
  18 C18            3.0669    -1.2353     1.9585 C.ar    
  19 C19            1.7714    -0.7674     1.7299 C.ar    
  20 C20            1.3529    -0.5264     0.4519 C.ar    
  21 C21            2.2056    -0.7430    -0.6221 C.ar    
  22 C22            3.4875    -1.2047    -0.4193 C.ar    
  23 C23            3.9347    -1.4568     0.8738 C.ar    
  24 H24           -0.7090    -0.3950     0.9862 H       
  25 H25           -0.3933    -0.3738    -0.7654 H       
  26 H26           -2.0065     1.6803    -0.2062 H       
  27 H27            0.7528     3.8085    -0.6788 H       
  28 H28            0.7114     6.2610    -0.4773 H       
  29 H29           -3.2191     6.0689     1.1681 H       
  30 H30           -3.1920     3.6167     0.9607 H       
  31 H31            5.9101    -2.1415     0.8701 H       
  32 H32            5.8371    -2.3100     3.4106 H       
  33 H33            3.4701    -1.5419     4.1807 H       
  34 H34            1.1022    -0.5974     2.5604 H       
  35 H35            1.8604    -0.5479    -1.6266 H       
  36 H36            4.1432    -1.3705    -1.2613 H       
@<TRIPOS>BOND
   1    1    2 1
   2    1    3 2
   3    1    4 am
   4    2   20 1
   5    2   24 1
   6    2   25 1
   7    4    5 1
   8    4   26 1
   9    5    6 ar
  10    5   10 ar
  11    6    7 ar
  12    6   27 1
  13    7    8 ar
  14    7   28 1
  15    8    9 ar
  16    8   11 1
  17    9   10 ar
  18    9   29 1
  19   10   30 1
  20   11   12 1
  21   11   13 1
  22   11   14 1
  23   15   16 1
  24   15   23 1
  25   15   31 1
  26   16   17 2
  27   16   32 1
  28   17   18 1
  29   17   33 1
  30   18   19 ar
  31   18   23 ar
  32   19   20 ar
  33   19   34 1
  34   20   21 ar
  35   21   22 ar
  36   21   35 1
  37   22   23 ar
  38   22   36 1

#	End of record

