#	Name: ASD09120023
#	Creating user name:	WinNT
#	Creation time:	15. 06. 2019 21:21

#	Modifying user name:	WinNT
#	Modification time:	15. 06. 2019 21:21

#	Program:	/corina/corina34_cracker 3.40 0067  02.08.2006

@<TRIPOS>MOLECULE
ASD09120023
  37   39    0    0    0
SMALL
NO_CHARGES


@<TRIPOS>ATOM
   1 C1             0.0002     1.3748     0.0589 C.ar    
   2 C2             0.0233    -0.0039     0.0622 C.ar    
   3 C3             1.0719    -0.6838    -0.5330 C.ar    
   4 C4             2.1035     0.0128    -1.1350 C.ar    
   5 C5             2.0935     1.3942    -1.1464 C.ar    
   6 C6             1.0379     2.0862    -0.5473 C.ar    
   7 N7            -1.0760    -0.7589     0.7044 N.pl3   
   8 O8            -1.9993    -0.1623     1.2289 O.2     
   9 O9            -1.0573    -1.9767     0.7083 O.2     
  10 C10            1.0195     3.5633    -0.5550 C.2     
  11 O11            1.9242     4.1797    -1.0835 O.2     
  12 N12           -0.0004     4.2276     0.0238 N.am    
  13 C13            0.0397     5.6141     0.1223 C.ar    
  14 Cl14           3.3895     2.2679    -1.9019 Cl      
  15 C15            1.2456     7.6684     0.4035 C.ar    
  16 C16            1.2382     6.2825     0.3090 C.ar    
  17 C17           -1.1418     6.3868     0.0289 C.ar    
  18 N18            0.1424     8.3741     0.3206 N.ar    
  19 C19           -2.3925     5.7845    -0.1651 C.ar    
  20 C20           -3.5115     6.5647    -0.2499 C.ar    
  21 C21           -3.4214     7.9553    -0.1451 C.ar    
  22 C22           -2.2212     8.5672     0.0435 C.ar    
  23 C23           -1.0494     7.7954     0.1353 C.ar    
  24 O24           -4.7248     5.9818    -0.4385 O.3     
  25 C25           -5.8565     6.8507    -0.5187 C.3     
  26 H26           -0.8209     1.9034     0.5202 H       
  27 H27            1.0845    -1.7638    -0.5269 H       
  28 H28            2.9189    -0.5240    -1.5969 H       
  29 H29           -0.7624     3.7385     0.3718 H       
  30 H30            2.1858     8.1794     0.5495 H       
  31 H31            2.1626     5.7289     0.3811 H       
  32 H32           -2.4714     4.7105    -0.2476 H       
  33 H33           -4.3180     8.5532    -0.2152 H       
  34 H34           -2.1684     9.6430     0.1221 H       
  35 H35           -5.7284     7.5378    -1.3552 H       
  36 H36           -6.7591     6.2586    -0.6698 H       
  37 H37           -5.9451     7.4184     0.4075 H       
@<TRIPOS>BOND
   1    1    2 ar
   2    1    6 ar
   3    1   26 1
   4    2    3 ar
   5    2    7 1
   6    3    4 ar
   7    3   27 1
   8    4    5 ar
   9    4   28 1
  10    5    6 ar
  11    5   14 1
  12    6   10 1
  13    7    8 2
  14    7    9 2
  15   10   11 2
  16   10   12 am
  17   12   13 1
  18   12   29 1
  19   13   17 ar
  20   13   16 ar
  21   15   16 ar
  22   15   18 ar
  23   15   30 1
  24   16   31 1
  25   17   19 ar
  26   17   23 ar
  27   18   23 ar
  28   19   20 ar
  29   19   32 1
  30   20   21 ar
  31   20   24 1
  32   21   22 ar
  33   21   33 1
  34   22   23 ar
  35   22   34 1
  36   24   25 1
  37   25   35 1
  38   25   36 1
  39   25   37 1

#	End of record

