#	Name: ASD08070141
#	Creating user name:	WinNT
#	Creation time:	15. 06. 2019 21:14

#	Modifying user name:	WinNT
#	Modification time:	15. 06. 2019 21:14

#	Program:	/corina/corina34_cracker 3.40 0067  02.08.2006

@<TRIPOS>MOLECULE
ASD08070141
  35   35    0    0    0
SMALL
NO_CHARGES


@<TRIPOS>ATOM
   1 C1            -0.0163     1.3483     0.0095 C.2     
   2 C2             0.0021    -0.0041     0.0020 C.2     
   3 C3            -1.2149    -0.7290     0.0097 C.2     
   4 O4            -2.2775    -0.1346     0.0231 O.2     
   5 N5            -1.1967    -2.0766     0.0023 N.am    
   6 C6            -2.4553    -2.8263     0.0103 C.3     
   7 C7            -2.2303    -4.2072    -0.6089 C.3     
   8 C8            -1.8621    -4.0501    -2.0856 C.3     
   9 C9            -1.6372    -5.4310    -2.7048 C.3     
  10 C10           -2.9440    -2.9870     1.4512 C.3     
  11 C11           -3.2878    -1.6128     2.0294 C.3     
  12 C12            1.2440     2.0989     0.0015 C.2     
  13 C13            1.3127     3.5426     0.0086 C.2     
  14 C14            2.5570     4.0046    -0.0001 C.2     
  15 S15            3.7085     2.6804    -0.0174 S.3     
  16 C16            2.4719     1.5074    -0.0076 C.2     
  17 H17           -0.9588     1.8755     0.0168 H       
  18 H18            0.9446    -0.5313    -0.0098 H       
  19 H19           -0.3501    -2.5501    -0.0083 H       
  20 H20           -3.2038    -2.2858    -0.5691 H       
  21 H21           -1.4198    -4.7130    -0.0842 H       
  22 H22           -3.1428    -4.7970    -0.5227 H       
  23 H23           -2.6726    -3.5442    -2.6103 H       
  24 H24           -0.9496    -3.4602    -2.1718 H       
  25 H25           -0.8267    -5.9368    -2.1801 H       
  26 H26           -2.5497    -6.0208    -2.6187 H       
  27 H27           -1.3749    -5.3190    -3.7569 H       
  28 H28           -3.8316    -3.6195     1.4654 H       
  29 H29           -2.1598    -3.4479     2.0516 H       
  30 H30           -3.6360    -1.7272     3.0559 H       
  31 H31           -2.4002    -0.9803     2.0152 H       
  32 H32           -4.0721    -1.1518     1.4290 H       
  33 H33            0.4409     4.1800     0.0194 H       
  34 H34            2.8240     5.0511     0.0032 H       
  35 H35            2.6386     0.4404    -0.0125 H       
@<TRIPOS>BOND
   1    1    2 2
   2    1   12 1
   3    1   17 1
   4    2    3 1
   5    2   18 1
   6    3    4 2
   7    3    5 am
   8    5    6 1
   9    5   19 1
  10    6    7 1
  11    6   10 1
  12    6   20 1
  13    7    8 1
  14    7   21 1
  15    7   22 1
  16    8    9 1
  17    8   23 1
  18    8   24 1
  19    9   25 1
  20    9   26 1
  21    9   27 1
  22   10   11 1
  23   10   28 1
  24   10   29 1
  25   11   30 1
  26   11   31 1
  27   11   32 1
  28   12   13 1
  29   12   16 2
  30   13   14 2
  31   13   33 1
  32   14   15 1
  33   14   34 1
  34   15   16 1
  35   16   35 1

#	End of record

