#	Name: ASD01910124
#	Creating user name:	WinNT
#	Creation time:	15. 06. 2019 19:55

#	Modifying user name:	WinNT
#	Modification time:	15. 06. 2019 19:55

#	Program:	/corina/corina34_cracker 3.40 0067  02.08.2006

@<TRIPOS>MOLECULE
ASD01910124
  42   45    0    0    0
SMALL
NO_CHARGES


@<TRIPOS>ATOM
   1 C1             0.1127     0.5033     0.4061 C.ar    
   2 C2             0.3431    -0.8591     0.4525 C.ar    
   3 C3             1.6380    -1.3565     0.3881 C.ar    
   4 C4             2.7052    -0.4816     0.2767 C.ar    
   5 C5             2.4711     0.9085     0.2293 C.ar    
   6 C6             1.1726     1.3921     0.2945 C.ar    
   7 C7             4.1712    -0.6477     0.1858 C.2     
   8 N8             4.7349     0.5703     0.0927 N.am    
   9 C9             3.8013     1.5385     0.1114 C.2     
  10 C10            6.1761     0.8105    -0.0146 C.3     
  11 C11            6.6012     0.6809    -1.4546 C.ar    
  12 C12            6.4506     1.7541    -2.3230 C.ar    
  13 C13            6.8440     1.6312    -3.6495 C.ar    
  14 C14            7.3833     0.4431    -4.1011 C.ar    
  15 C15            7.5322    -0.6247    -3.2335 C.ar    
  16 C16            7.1461    -0.5035    -1.9106 C.ar    
  17 N17            5.9035     2.9563    -1.8628 N.am    
  18 C18            5.3569     3.8256    -2.7357 C.2     
  19 C19            4.8836     5.1482    -2.2657 C.ar    
  20 O20            5.2522     3.5243    -3.9084 O.2     
  21 O21            4.0166     2.7320     0.0427 O.2     
  22 O22            4.7668    -1.7060     0.1939 O.2     
  23 Br23           8.2707    -2.2505    -3.8559 Br      
  24 C24            4.3195     6.0422    -3.1727 C.ar    
  25 C25            3.8811     7.2761    -2.7179 C.ar    
  26 C26            4.0224     7.5727    -1.3715 C.ar    
  27 C27            4.5931     6.6349    -0.5254 C.ar    
  28 N28            4.9956     5.4694    -0.9824 N.ar    
  29 Cl29          -0.9955    -1.9555     0.5928 Cl      
  30 Cl30           0.8747     3.1014     0.2363 Cl      
  31 H31           -0.8991     0.8781     0.4525 H       
  32 H32            1.8120    -2.4218     0.4252 H       
  33 H33            6.4046     1.8145     0.3428 H       
  34 H34            6.7123     0.0789     0.5898 H       
  35 H35            6.7277     2.4641    -4.3272 H       
  36 H36            7.6890     0.3469    -5.1325 H       
  37 H37            7.2638    -1.3384    -1.2356 H       
  38 H38            5.9176     3.1644    -0.9155 H       
  39 H39            4.2253     5.7778    -4.2156 H       
  40 H40            3.4399     7.9902    -3.3974 H       
  41 H41            3.6913     8.5254    -0.9854 H       
  42 H42            4.7047     6.8628     0.5243 H       
@<TRIPOS>BOND
   1    1    2 ar
   2    1    6 ar
   3    1   31 1
   4    2    3 ar
   5    2   29 1
   6    3    4 ar
   7    3   32 1
   8    4    5 ar
   9    4    7 1
  10    5    6 ar
  11    5    9 1
  12    6   30 1
  13    7    8 am
  14    7   22 2
  15    8    9 am
  16    8   10 1
  17    9   21 2
  18   10   11 1
  19   10   33 1
  20   10   34 1
  21   11   12 ar
  22   11   16 ar
  23   12   13 ar
  24   12   17 1
  25   13   14 ar
  26   13   35 1
  27   14   15 ar
  28   14   36 1
  29   15   16 ar
  30   15   23 1
  31   16   37 1
  32   17   18 am
  33   17   38 1
  34   18   19 1
  35   18   20 2
  36   19   24 ar
  37   19   28 ar
  38   24   25 ar
  39   24   39 1
  40   25   26 ar
  41   25   40 1
  42   26   27 ar
  43   26   41 1
  44   27   28 ar
  45   27   42 1

#	End of record

