#	Name: ASD01881179
#	Creating user name:	WinNT
#	Creation time:	15. 06. 2019 19:42

#	Modifying user name:	WinNT
#	Modification time:	15. 06. 2019 19:42

#	Program:	/corina/corina34_cracker 3.40 0067  02.08.2006

@<TRIPOS>MOLECULE
ASD01881179
  62   65    0    0    0
SMALL
NO_CHARGES


@<TRIPOS>ATOM
   1 Cl1            8.0740     4.5696     0.7340 Cl      
   2 N2            -0.0158     1.3133     0.0093 N.ar    
   3 C3             0.0021    -0.0041     0.0020 C.ar    
   4 N4             1.1310    -0.6839    -0.0124 N.ar    
   5 C5             2.3020    -0.0629    -0.0203 C.ar    
   6 C6             2.3325     1.3179    -0.0131 C.ar    
   7 C7             1.1186     2.0075     0.0022 C.ar    
   8 C8             3.6432     2.0616    -0.0217 C.3     
   9 O9             4.0446     2.3039    -1.3715 O.3     
  10 C10            5.2131     2.9688    -1.5570 C.ar    
  11 C11            5.6627     3.2377    -2.8465 C.ar    
  12 C12            6.8441     3.9105    -3.0338 C.ar    
  13 C13            7.6023     4.3294    -1.9351 C.ar    
  14 C14            7.1461     4.0574    -0.6409 C.ar    
  15 C15            5.9560     3.3851    -0.4595 C.ar    
  16 C16            7.5978     4.3516    -4.2638 C.3     
  17 N17            8.8053     5.0320    -3.7820 N.am    
  18 C18            8.8034     5.0167    -2.4380 C.2     
  19 O19            9.6707     5.5013    -1.7370 O.2     
  20 N20            1.0960     3.3927     0.0094 N.pl3   
  21 C21           -0.1844     4.1044     0.0254 C.3     
  22 C22            0.0668     5.5903     0.0305 C.ar    
  23 C23            0.1704     6.2778    -1.1643 C.ar    
  24 C24            0.4009     7.6408    -1.1597 C.ar    
  25 C25            0.5273     8.3163     0.0397 C.ar    
  26 C26            0.4229     7.6290     1.2345 C.ar    
  27 C27            0.1881     6.2667     1.2299 C.ar    
  28 C28            4.0051    -1.1144    -1.4841 C.3     
  29 C29            3.5846    -0.8540    -0.0363 C.3     
  30 C30           -1.7614    -1.0007    -1.4284 C.3     
  31 C31           -1.3048    -0.7544     0.0110 C.3     
  32 C32            9.4905     7.0926    -4.9071 C.3     
  33 C33            9.8420     5.6301    -4.6268 C.3     
  34 H34            3.5250     3.0122     0.4984 H       
  35 H35            4.4033     1.4641     0.4817 H       
  36 H36            5.0824     2.9169    -3.6990 H       
  37 H37            5.6036     3.1750     0.5395 H       
  38 H38            7.8710     3.4854    -4.8665 H       
  39 H39            6.9886     5.0396    -4.8500 H       
  40 H40            1.9280     3.8913     0.0038 H       
  41 H41           -0.7603     3.8362    -0.8604 H       
  42 H42           -0.7429     3.8273     0.9195 H       
  43 H43            0.0716     5.7500    -2.1014 H       
  44 H44            0.4825     8.1778    -2.0931 H       
  45 H45            0.7081     9.3811     0.0433 H       
  46 H46            0.5220     8.1567     2.1715 H       
  47 H47            0.1064     5.7297     2.1633 H       
  48 H48            3.2239    -1.6786    -1.9935 H       
  49 H49            4.1583    -0.1636    -1.9946 H       
  50 H50            4.9328    -1.6866    -1.4957 H       
  51 H51            4.3658    -0.2898     0.4731 H       
  52 H52            3.4315    -1.8048     0.4743 H       
  53 H53           -1.0083    -1.5888    -1.9529 H       
  54 H54           -2.7066    -1.5434    -1.4219 H       
  55 H55           -1.8945    -0.0452    -1.9358 H       
  56 H56           -1.1717    -1.7099     0.5184 H       
  57 H57           -2.0579    -0.1663     0.5355 H       
  58 H58            8.5299     7.1436    -5.4197 H       
  59 H59            9.4294     7.6385    -3.9656 H       
  60 H60           10.2618     7.5376    -5.5357 H       
  61 H61           10.8026     5.5791    -4.1142 H       
  62 H62            9.9031     5.0843    -5.5683 H       
@<TRIPOS>BOND
   1    1   14 1
   2    2    3 ar
   3    2    7 ar
   4    3    4 ar
   5    3   31 1
   6    4    5 ar
   7    5    6 ar
   8    5   29 1
   9    6    7 ar
  10    6    8 1
  11    7   20 1
  12    8    9 1
  13    8   34 1
  14    8   35 1
  15    9   10 1
  16   10   11 ar
  17   10   15 ar
  18   11   12 ar
  19   11   36 1
  20   12   13 ar
  21   12   16 1
  22   13   14 ar
  23   13   18 1
  24   14   15 ar
  25   15   37 1
  26   16   17 1
  27   16   38 1
  28   16   39 1
  29   17   18 am
  30   17   33 1
  31   18   19 2
  32   20   21 1
  33   20   40 1
  34   21   22 1
  35   21   41 1
  36   21   42 1
  37   22   23 ar
  38   22   27 ar
  39   23   24 ar
  40   23   43 1
  41   24   25 ar
  42   24   44 1
  43   25   26 ar
  44   25   45 1
  45   26   27 ar
  46   26   46 1
  47   27   47 1
  48   28   29 1
  49   28   48 1
  50   28   49 1
  51   28   50 1
  52   29   51 1
  53   29   52 1
  54   30   31 1
  55   30   53 1
  56   30   54 1
  57   30   55 1
  58   31   56 1
  59   31   57 1
  60   32   33 1
  61   32   58 1
  62   32   59 1
  63   32   60 1
  64   33   61 1
  65   33   62 1

#	End of record

