#	Name: ASD02198267
#	Creating user name:	WinNT
#	Creation time:	15. 06. 2019 20:19

#	Modifying user name:	WinNT
#	Modification time:	15. 06. 2019 20:19

#	Program:	/corina/corina34_cracker 3.40 0067  02.08.2006

@<TRIPOS>MOLECULE
ASD02198267
  33   34    0    0    0
SMALL
NO_CHARGES


@<TRIPOS>ATOM
   1 C1            -0.0165     1.3675     0.0096 C.2     
   2 C2             0.0021    -0.0041     0.0020 C.2     
   3 S3             1.6265     1.9880    -0.0028 S.3     
   4 C4             2.2876     0.4165    -0.0175 C.2     
   5 C5             1.2911    -0.5353    -0.0131 C.2     
   6 C6             1.5556    -1.9427    -0.0225 C.1     
   7 N7             1.7654    -3.0591    -0.0299 N.1     
   8 N8            -1.1453    -0.7836     0.0092 N.pl3   
   9 C9            -1.1801     2.1603     0.0196 C.2     
  10 O10           -1.0796     3.5072     0.0264 O.3     
  11 C11           -2.3010     4.2489     0.0364 C.3     
  12 O12           -2.2773     1.6315     0.0221 O.2     
  13 N13            3.6349     0.1364    -0.0319 N.3     
  14 C14            4.4293     1.3715    -0.0323 C.3     
  15 C15            5.9141     1.0246     0.0984 C.3     
  16 C16            6.3289     0.1286    -1.0719 C.3     
  17 C17            5.4540    -1.1281    -1.0773 C.3     
  18 C18            3.9825    -0.7188    -1.1740 C.3     
  19 H19           -2.0184    -0.3613     0.0198 H       
  20 H20           -1.0744    -1.7509     0.0037 H       
  21 H21           -2.0782     5.3158     0.0411 H       
  22 H22           -2.8826     4.0031    -0.8521 H       
  23 H23           -2.8739     3.9934     0.9278 H       
  24 H24            4.2629     1.9100    -0.9652 H       
  25 H25            4.1274     1.9977     0.8072 H       
  26 H26            6.5046     1.9407     0.0824 H       
  27 H27            6.0835     0.4981     1.0377 H       
  28 H28            6.1962     0.6689    -2.0092 H       
  29 H29            7.3749    -0.1564    -0.9596 H       
  30 H30            5.7157    -1.7500    -1.9334 H       
  31 H31            5.6161    -1.6884    -0.1566 H       
  32 H32            3.3560    -1.6107    -1.1637 H       
  33 H33            3.8182    -0.1705    -2.1016 H       
@<TRIPOS>BOND
   1    1    2 2
   2    1    3 1
   3    1    9 1
   4    2    8 1
   5    2    5 1
   6    3    4 1
   7    4    5 2
   8    4   13 1
   9    5    6 1
  10    6    7 3
  11    8   19 1
  12    8   20 1
  13    9   10 1
  14    9   12 2
  15   10   11 1
  16   11   21 1
  17   11   22 1
  18   11   23 1
  19   13   14 1
  20   13   18 1
  21   14   15 1
  22   14   24 1
  23   14   25 1
  24   15   16 1
  25   15   26 1
  26   15   27 1
  27   16   17 1
  28   16   28 1
  29   16   29 1
  30   17   18 1
  31   17   30 1
  32   17   31 1
  33   18   32 1
  34   18   33 1

#	End of record

