#	Name: ASD01810605
#	Creating user name:	WinNT
#	Creation time:	15. 06. 2019 19:24

#	Modifying user name:	WinNT
#	Modification time:	15. 06. 2019 19:24

#	Program:	/corina/corina34_cracker 3.40 0067  02.08.2006

@<TRIPOS>MOLECULE
ASD01810605
  69   72    0    0    0
SMALL
NO_CHARGES


@<TRIPOS>ATOM
   1 N1            -0.1920     1.5723    -0.3718 N.am    
   2 C2            -0.2887     0.3065    -0.8245 C.2     
   3 O3             0.7034    -0.2757    -1.2183 O.2     
   4 N4            -1.4851    -0.3139    -0.8407 N.am    
   5 C5            -1.5901    -1.6897    -1.3329 C.3     
   6 O6            -3.4795    -2.1344     0.1205 O.3     
   7 C7            -3.0456    -2.1532    -1.2445 C.3     
   8 C8            -3.1641    -3.6065    -1.7516 C.3     
   9 C9            -4.1906    -4.2190    -0.7601 C.3     
  10 C10           -3.8286    -3.4623     0.5427 C.3     
  11 C11            1.0643     2.1764    -0.2454 C.ar    
  12 C12            1.1966     3.5485    -0.4224 C.ar    
  13 C13            2.4350     4.1497    -0.2991 C.ar    
  14 C14            3.5487     3.3915     0.0006 C.ar    
  15 C15            3.4263     2.0129     0.1808 C.ar    
  16 C16            2.1754     1.4070     0.0619 C.ar    
  17 C17           -0.0142     4.3836    -0.7504 C.3     
  18 C18            4.8967     4.0520     0.1329 C.3     
  19 C19            5.6067     4.0381    -1.2223 C.3     
  20 C20            4.6177     1.1980     0.5016 C.2     
  21 O21            5.5850     1.2199    -0.2341 O.2     
  22 N22            4.6311     0.4310     1.6097 N.am    
  23 C23            5.8437    -0.3020     1.9982 C.3     
  24 C24            6.1928     0.0547     3.4465 C.3     
  25 C25            4.9809    -0.2165     4.3408 C.3     
  26 C26            3.8096     0.6622     3.8958 C.3     
  27 C27            3.4352     0.3168     2.4556 C.3     
  28 F28            4.6181    -1.5638     4.2382 F       
  29 C29            5.3316     0.1011     5.7716 C.ar    
  30 C30            4.5189    -0.3504     6.7963 C.ar    
  31 C31            4.8340    -0.0633     8.1082 C.ar    
  32 C32            5.9763     0.6845     8.4009 C.ar    
  33 C33            6.7922     1.1366     7.3619 C.ar    
  34 C34            6.4679     0.8381     6.0547 C.ar    
  35 C35            6.3093     0.9867     9.7605 C.1     
  36 N36            6.5735     1.2264    10.8390 N.1     
  37 H37           -0.9934     2.0660    -0.1373 H       
  38 H38           -2.2766     0.1506    -0.5266 H       
  39 H39           -1.2581    -1.7309    -2.3702 H       
  40 H40           -0.9635    -2.3420    -0.7246 H       
  41 H41           -3.6800    -1.4997    -1.8432 H       
  42 H42           -3.5476    -3.6314    -2.7716 H       
  43 H43           -2.2052    -4.1204    -1.6840 H       
  44 H44           -5.2130    -4.0020    -1.0692 H       
  45 H45           -4.0356    -5.2920    -0.6471 H       
  46 H46           -2.9799    -3.9386     1.0335 H       
  47 H47           -4.6869    -3.4325     1.2138 H       
  48 H48            2.5317     5.2164    -0.4382 H       
  49 H49            2.0737     0.3413     0.2046 H       
  50 H50           -0.4772     4.7308     0.1733 H       
  51 H51            0.2881     5.2419    -1.3503 H       
  52 H52           -0.7293     3.7819    -1.3115 H       
  53 H53            4.7656     5.0823     0.4638 H       
  54 H54            5.4971     3.5095     0.8632 H       
  55 H55            5.0064     4.5806    -1.9526 H       
  56 H56            6.5817     4.5158    -1.1266 H       
  57 H57            5.7378     3.0078    -1.5532 H       
  58 H58            5.6637    -1.3742     1.9191 H       
  59 H59            6.6676    -0.0185     1.3432 H       
  60 H60            7.0336    -0.5543     3.7786 H       
  61 H61            6.4608     1.1095     3.5069 H       
  62 H62            2.9541     0.4856     4.5477 H       
  63 H63            4.0999     1.7113     3.9520 H       
  64 H64            2.6704     1.0085     2.1024 H       
  65 H65            3.0547    -0.7038     2.4146 H       
  66 H66            3.6357    -0.9287     6.5685 H       
  67 H67            4.1984    -0.4158     8.9071 H       
  68 H68            7.6772     1.7154     7.5813 H       
  69 H69            7.1002     1.1837     5.2503 H       
@<TRIPOS>BOND
   1    1    2 am
   2    1   11 1
   3    1   37 1
   4    2    3 2
   5    2    4 am
   6    4    5 1
   7    4   38 1
   8    5    7 1
   9    5   39 1
  10    5   40 1
  11    6    7 1
  12    6   10 1
  13    7    8 1
  14    7   41 1
  15    8    9 1
  16    8   42 1
  17    8   43 1
  18    9   10 1
  19    9   44 1
  20    9   45 1
  21   10   46 1
  22   10   47 1
  23   11   12 ar
  24   11   16 ar
  25   12   13 ar
  26   12   17 1
  27   13   14 ar
  28   13   48 1
  29   14   15 ar
  30   14   18 1
  31   15   16 ar
  32   15   20 1
  33   16   49 1
  34   17   50 1
  35   17   51 1
  36   17   52 1
  37   18   19 1
  38   18   53 1
  39   18   54 1
  40   19   55 1
  41   19   56 1
  42   19   57 1
  43   20   21 2
  44   20   22 am
  45   22   23 1
  46   22   27 1
  47   23   24 1
  48   23   58 1
  49   23   59 1
  50   24   25 1
  51   24   60 1
  52   24   61 1
  53   25   26 1
  54   25   28 1
  55   25   29 1
  56   26   27 1
  57   26   62 1
  58   26   63 1
  59   27   64 1
  60   27   65 1
  61   29   30 ar
  62   29   34 ar
  63   30   31 ar
  64   30   66 1
  65   31   32 ar
  66   31   67 1
  67   32   33 ar
  68   32   35 1
  69   33   34 ar
  70   33   68 1
  71   34   69 1
  72   35   36 3

#	End of record

