#	Name: ASD09740315
#	Creating user name:	WinNT
#	Creation time:	15. 06. 2019 21:23

#	Modifying user name:	WinNT
#	Modification time:	15. 06. 2019 21:23

#	Program:	/corina/corina34_cracker 3.40 0067  02.08.2006

@<TRIPOS>MOLECULE
ASD09740315
  45   47    0    0    0
SMALL
NO_CHARGES


@<TRIPOS>ATOM
   1 O1            -0.0144     1.2085     0.0087 O.3     
   2 N2             0.0021    -0.0041     0.0020 N.2     
   3 C3             1.2413     1.6828    -0.0008 C.2     
   4 N4             2.0459     0.6359    -0.0141 N.2     
   5 C5             1.2348    -0.4424    -0.0121 C.2     
   6 C6             1.6623    -1.8639    -0.0234 C.ar    
   7 C7             1.6455     3.1033     0.0023 C.ar    
   8 C8             2.9990     3.4455    -0.0092 C.ar    
   9 C9             3.3748     4.7723    -0.0069 C.ar    
  10 C10            2.4105     5.7696     0.0070 C.ar    
  11 C11            1.0574     5.4348     0.0190 C.ar    
  12 C12            0.6742     4.1075     0.0108 C.ar    
  13 C13            0.7096    -2.8804    -0.0198 C.ar    
  14 C14            1.1125    -4.2005    -0.0308 C.ar    
  15 C15            2.4594    -4.5150    -0.0454 C.ar    
  16 C16            3.4094    -3.5097    -0.0485 C.ar    
  17 C17            3.0175    -2.1863    -0.0434 C.ar    
  18 C18            2.8933    -5.9581    -0.0574 C.3     
  19 O19            2.7857     7.0754     0.0092 O.3     
  20 C20            4.1886     7.3473    -0.0031 C.3     
  21 C21            4.4148     8.8605     0.0016 C.3     
  22 O22            0.1145     6.4147     0.0334 O.3     
  23 C23           -1.2528     5.9993     0.0451 C.3     
  24 C24           -2.1600     7.2313     0.0605 C.3     
  25 O25            3.0176    -6.4069    -1.4083 O.3     
  26 H26            3.7517     2.6711    -0.0196 H       
  27 H27            4.4222     5.0356    -0.0154 H       
  28 H28           -0.3738     3.8466     0.0201 H       
  29 H29           -0.3423    -2.6359    -0.0081 H       
  30 H30            0.3748    -4.9893    -0.0277 H       
  31 H31            4.4598    -3.7607    -0.0592 H       
  32 H32            3.7601    -1.4021    -0.0459 H       
  33 H33            3.8551    -6.0525     0.4468 H       
  34 H34            2.1506    -6.5651     0.4603 H       
  35 H35            4.6516     6.9080     0.8805 H       
  36 H36            4.6344     6.9160    -0.8993 H       
  37 H37            3.9518     9.2998    -0.8820 H       
  38 H38            3.9690     9.2918     0.8979 H       
  39 H39            5.4849     9.0679    -0.0078 H       
  40 H40           -1.4601     5.4065    -0.8458 H       
  41 H41           -1.4421     5.3976     0.9341 H       
  42 H42           -3.2029     6.9144     0.0694 H       
  43 H43           -1.9527     7.8241     0.9514 H       
  44 H44           -1.9707     7.8330    -0.8285 H       
  45 H45            3.2944    -7.3296    -1.4923 H       
@<TRIPOS>BOND
   1    1    2 1
   2    1    3 1
   3    2    5 2
   4    3    4 2
   5    3    7 1
   6    4    5 1
   7    5    6 1
   8    6   13 ar
   9    6   17 ar
  10    7    8 ar
  11    7   12 ar
  12    8    9 ar
  13    8   26 1
  14    9   10 ar
  15    9   27 1
  16   10   11 ar
  17   10   19 1
  18   11   12 ar
  19   11   22 1
  20   12   28 1
  21   13   14 ar
  22   13   29 1
  23   14   15 ar
  24   14   30 1
  25   15   16 ar
  26   15   18 1
  27   16   17 ar
  28   16   31 1
  29   17   32 1
  30   18   25 1
  31   18   33 1
  32   18   34 1
  33   19   20 1
  34   20   21 1
  35   20   35 1
  36   20   36 1
  37   21   37 1
  38   21   38 1
  39   21   39 1
  40   22   23 1
  41   23   24 1
  42   23   40 1
  43   23   41 1
  44   24   42 1
  45   24   43 1
  46   24   44 1
  47   25   45 1

#	End of record

