#	Name: ASD01810196
#	Creating user name:	WinNT
#	Creation time:	15. 06. 2019 19:24

#	Modifying user name:	WinNT
#	Modification time:	15. 06. 2019 19:24

#	Program:	/corina/corina34_cracker 3.40 0067  02.08.2006

@<TRIPOS>MOLECULE
ASD01810196
  45   48    0    0    0
SMALL
NO_CHARGES


@<TRIPOS>ATOM
   1 C1             0.1040     1.4773     0.3906 C.ar    
   2 C2             0.0851     0.0901     0.3825 C.ar    
   3 C3             1.2535    -0.6294     0.2405 C.ar    
   4 C4             2.4698     0.0389     0.1031 C.ar    
   5 C5             2.4842     1.4436     0.1118 C.ar    
   6 C6             1.2944     2.1571     0.2564 C.ar    
   7 N7             3.6452    -0.6678    -0.0386 N.pl3   
   8 C8             4.8373    -0.0735    -0.1723 C.2     
   9 C9             4.9781     1.2999    -0.1781 C.2     
  10 C10            3.7770     2.1382    -0.0343 C.2     
  11 O11            3.8480     3.3547    -0.0335 O.2     
  12 C12            6.3049     1.9144    -0.3262 C.2     
  13 O13            6.4294     3.2567    -0.3303 O.3     
  14 O14            7.2902     1.2122    -0.4450 O.2     
  15 C15            3.5871    -2.1316    -0.0427 C.3     
  16 C16            3.4445    -2.6248    -1.4595 C.ar    
  17 C17            4.5668    -2.7659    -2.2561 C.ar    
  18 C18            4.4425    -3.2166    -3.5544 C.ar    
  19 C19            3.1826    -3.5304    -4.0629 C.ar    
  20 C20            2.0552    -3.3866    -3.2551 C.ar    
  21 C21            2.1926    -2.9399    -1.9567 C.ar    
  22 C22            3.0424    -4.0144    -5.4564 C.ar    
  23 C23            2.3016    -5.1786    -5.7300 C.ar    
  24 C24            2.1782    -5.6225    -7.0474 C.ar    
  25 C25            2.7807    -4.9203    -8.0702 C.ar    
  26 C26            3.5102    -3.7744    -7.7993 C.ar    
  27 C27            3.6381    -3.3167    -6.5033 C.ar    
  28 C28            1.6786    -5.9036    -4.6638 C.1     
  29 N29            1.1845    -6.4789    -3.8180 N.1     
  30 F30            1.2197    -1.9800     0.2349 F       
  31 H31           -0.8196     2.0267     0.4982 H       
  32 H32           -0.8543    -0.4321     0.4890 H       
  33 H33            1.3064     3.2371     0.2626 H       
  34 H34            5.7184    -0.6889    -0.2788 H       
  35 H35            7.3222     3.6145    -0.4304 H       
  36 H36            4.5030    -2.5328     0.3913 H       
  37 H37            2.7311    -2.4629     0.5452 H       
  38 H38            5.5420    -2.5225    -1.8611 H       
  39 H39            5.3192    -3.3257    -4.1755 H       
  40 H40            1.0768    -3.6278    -3.6436 H       
  41 H41            1.3202    -2.8285    -1.3299 H       
  42 H42            1.6114    -6.5155    -7.2658 H       
  43 H43            2.6834    -5.2663    -9.0887 H       
  44 H44            3.9781    -3.2326    -8.6081 H       
  45 H45            4.2083    -2.4222    -6.3005 H       
@<TRIPOS>BOND
   1    1    2 ar
   2    1    6 ar
   3    1   31 1
   4    2    3 ar
   5    2   32 1
   6    3    4 ar
   7    3   30 1
   8    4    5 ar
   9    4    7 1
  10    5    6 ar
  11    5   10 1
  12    6   33 1
  13    7    8 1
  14    7   15 1
  15    8    9 2
  16    8   34 1
  17    9   10 1
  18    9   12 1
  19   10   11 2
  20   12   13 1
  21   12   14 2
  22   13   35 1
  23   15   16 1
  24   15   36 1
  25   15   37 1
  26   16   17 ar
  27   16   21 ar
  28   17   18 ar
  29   17   38 1
  30   18   19 ar
  31   18   39 1
  32   19   20 ar
  33   19   22 1
  34   20   21 ar
  35   20   40 1
  36   21   41 1
  37   22   23 ar
  38   22   27 ar
  39   23   24 ar
  40   23   28 1
  41   24   25 ar
  42   24   42 1
  43   25   26 ar
  44   25   43 1
  45   26   27 ar
  46   26   44 1
  47   27   45 1
  48   28   29 3

#	End of record

