#	Name: ASD03091118
#	Creating user name:	WinNT
#	Creation time:	15. 06. 2019 20:30

#	Modifying user name:	WinNT
#	Modification time:	15. 06. 2019 20:30

#	Program:	/corina/corina34_cracker 3.40 0067  02.08.2006

@<TRIPOS>MOLECULE
ASD03091118
  49   51    0    0    0
SMALL
NO_CHARGES


@<TRIPOS>ATOM
   1 C1            -0.0339     1.4639    -0.2412 C.2     
   2 C2            -0.0055    -0.0095    -0.1204 C.ar    
   3 C3             1.2142    -0.6888    -0.1204 C.ar    
   4 C4             1.2383    -2.0638    -0.0075 C.ar    
   5 C5             0.0574    -2.7735     0.1063 C.ar    
   6 C6            -1.1621    -2.1069     0.1073 C.ar    
   7 C7            -1.1966    -0.7247    -0.0003 C.ar    
   8 O8             0.4699     2.0044    -1.2064 O.2     
   9 N9            -0.6233     2.2073     0.7161 N.am    
  10 N10            2.4817     0.0660    -0.2420 N.pl3   
  11 O11            3.5367    -0.5307    -0.3629 O.2     
  12 O12            2.4697     1.2837    -0.2211 O.2     
  13 C13           -0.6515     3.6671     0.5964 C.3     
  14 C14           -1.3629     4.2552     1.7877 C.2     
  15 O15           -1.8030     3.5266     2.6516 O.2     
  16 N16           -1.5100     5.5907     1.8930 N.am    
  17 C17           -2.2015     6.1624     3.0511 C.3     
  18 C18           -1.2115     6.3278     4.2058 C.3     
  19 C19           -2.7807     7.5280     2.6763 C.3     
  20 C20           -2.2054    -4.2020    -0.3550 C.3     
  21 N21           -2.3528    -2.8286     0.2220 N.3     
  22 C22           -3.4441    -2.1785    -0.5428 C.3     
  23 C23           -3.9394    -3.2652    -1.5467 C.3     
  24 N24           -2.8255    -3.3794    -2.5402 N.3     
  25 C25           -1.6750    -3.9525    -1.8008 C.3     
  26 C26           -3.7015    -4.5532    -0.6798 C.3     
  27 H27            2.1829    -2.5874    -0.0084 H       
  28 H28            0.0825    -3.8497     0.1943 H       
  29 H29           -2.1430    -0.2043     0.0044 H       
  30 H30           -1.0289     1.7757     1.4843 H       
  31 H31            0.3690     4.0483     0.5580 H       
  32 H32           -1.1784     3.9468    -0.3159 H       
  33 H33           -1.1580     6.1734     1.2021 H       
  34 H34           -3.0088     5.4970     3.3572 H       
  35 H35           -0.4042     6.9932     3.8998 H       
  36 H36           -1.7260     6.7532     5.0675 H       
  37 H37           -0.7989     5.3549     4.4728 H       
  38 H38           -3.4860     7.4102     1.8537 H       
  39 H39           -3.2952     7.9534     3.5379 H       
  40 H40           -1.9734     8.1935     2.3703 H       
  41 H41           -1.6455    -4.9180     0.2466 H       
  42 H42           -4.2527    -1.8849     0.1266 H       
  43 H43           -3.0638    -1.3106    -1.0817 H       
  44 H44           -4.9379    -3.1205    -1.9593 H       
  45 H45           -3.0897    -3.9716    -3.3132 H       
  46 H46           -0.8461    -3.2449    -1.7831 H       
  47 H47           -1.3621    -4.8919    -2.2566 H       
  48 H48           -3.7950    -5.4689    -1.2637 H       
  49 H49           -4.3259    -4.5727     0.2135 H       
@<TRIPOS>BOND
   1    1    2 1
   2    1    8 2
   3    1    9 am
   4    2    3 ar
   5    2    7 ar
   6    3    4 ar
   7    3   10 1
   8    4    5 ar
   9    4   27 1
  10    5    6 ar
  11    5   28 1
  12    6    7 ar
  13    6   21 1
  14    7   29 1
  15    9   13 1
  16    9   30 1
  17   10   11 2
  18   10   12 2
  19   13   14 1
  20   13   31 1
  21   13   32 1
  22   14   15 2
  23   14   16 am
  24   16   17 1
  25   16   33 1
  26   17   18 1
  27   17   19 1
  28   17   34 1
  29   18   35 1
  30   18   36 1
  31   18   37 1
  32   19   38 1
  33   19   39 1
  34   19   40 1
  35   20   21 1
  36   20   25 1
  37   20   26 1
  38   20   41 1
  39   21   22 1
  40   22   23 1
  41   22   42 1
  42   22   43 1
  43   23   24 1
  44   23   26 1
  45   23   44 1
  46   24   25 1
  47   24   45 1
  48   25   46 1
  49   25   47 1
  50   26   48 1
  51   26   49 1

#	End of record

