#	Name: ASD01810269
#	Creating user name:	WinNT
#	Creation time:	15. 06. 2019 19:24

#	Modifying user name:	WinNT
#	Modification time:	15. 06. 2019 19:24

#	Program:	/corina/corina34_cracker 3.40 0067  02.08.2006

@<TRIPOS>MOLECULE
ASD01810269
  68   73    0    0    0
SMALL
NO_CHARGES


@<TRIPOS>ATOM
   1 C1             0.3581     1.0610     1.7737 C.ar    
   2 C2             0.3056    -0.2750     1.3819 C.ar    
   3 C3             1.3155    -0.8343     0.6594 C.ar    
   4 C4             2.4284    -0.0570     0.3008 C.ar    
   5 C5             2.4823     1.3042     0.6992 C.ar    
   6 C6             1.4203     1.8459     1.4450 C.ar    
   7 C7             3.4886    -0.6034    -0.4454 C.ar    
   8 C8             4.5544     0.1656    -0.7816 C.ar    
   9 C9             4.6228     1.5181    -0.3934 C.ar    
  10 C10            3.5908     2.0795     0.3417 C.ar    
  11 C11            5.6471     2.5562    -0.6221 C.2     
  12 N12            5.2721     3.7153    -0.0544 N.am    
  13 C13            3.9684     3.5182     0.5897 C.3     
  14 O14            6.6826     2.3867    -1.2360 O.2     
  15 C15            6.0361     4.9651    -0.0755 C.3     
  16 C16            3.4403    -2.0479    -0.8722 C.3     
  17 N17            3.7749    -2.9077     0.2709 N.3     
  18 C18            3.3728    -4.2975     0.0195 C.3     
  19 C19            3.6022    -5.1325     1.2813 C.3     
  20 C20            5.0831    -5.0715     1.6656 C.3     
  21 C21            5.4884    -3.6098     1.8745 C.3     
  22 C22            5.2043    -2.8190     0.5955 C.3     
  23 C23            5.3046    -5.8428     2.9411 C.ar    
  24 C24            6.5887    -6.1907     3.3146 C.ar    
  25 N25            4.2711    -6.1733     3.6908 N.ar    
  26 C26            4.4170    -6.8472     4.8147 C.ar    
  27 C27            5.6708    -7.2339     5.2495 C.ar    
  28 C28            6.7817    -6.9000     4.4905 C.ar    
  29 C29            5.8956    -5.6580     0.5873 C.1     
  30 N30            6.5227    -6.1105    -0.2449 N.1     
  31 C31            6.8629     5.0359    -1.3609 C.3     
  32 C32            5.0728     6.1526    -0.0226 C.3     
  33 C33            4.1384     6.1056    -1.2333 C.3     
  34 C34            4.9652     6.1764    -2.5187 C.3     
  35 C35            5.9285     4.9889    -2.5715 C.3     
  36 O36            4.3006     6.0865     1.1779 O.3     
  37 H37           -0.4581     1.4811     2.3427 H       
  38 H38           -0.5487    -0.8764     1.6557 H       
  39 H39            1.2607    -1.8715     0.3638 H       
  40 H40            1.4472     2.8801     1.7549 H       
  41 H41            5.3621    -0.2653    -1.3547 H       
  42 H42            3.2268     4.1823     0.1457 H       
  43 H43            4.0472     3.7059     1.6605 H       
  44 H44            6.7017     4.9986     0.7870 H       
  45 H45            2.4381    -2.2886    -1.2269 H       
  46 H46            4.1592    -2.2139    -1.6745 H       
  47 H47            2.3167    -4.3272    -0.2486 H       
  48 H48            3.9666    -4.7051    -0.7986 H       
  49 H49            2.9981    -4.7338     2.0963 H       
  50 H50            3.3182    -6.1672     1.0896 H       
  51 H51            4.9139    -3.1872     2.6988 H       
  52 H52            6.5521    -3.5567     2.1065 H       
  53 H53            5.7895    -3.2335    -0.2254 H       
  54 H54            5.4785    -1.7748     0.7457 H       
  55 H55            7.4314    -5.9139     2.6984 H       
  56 H56            3.5469    -7.0996     5.4025 H       
  57 H57            5.7839    -7.7857     6.1710 H       
  58 H58            7.7736    -7.1890     4.8053 H       
  59 H59            7.4313     5.9658    -1.3765 H       
  60 H60            7.5491     4.1899    -1.3985 H       
  61 H61            5.6412     7.0825    -0.0383 H       
  62 H62            3.5700     5.1757    -1.2176 H       
  63 H63            3.4521     6.9516    -1.1956 H       
  64 H64            4.2995     6.1429    -3.3811 H       
  65 H65            5.5336     7.1063    -2.5343 H       
  66 H66            6.5175     5.0393    -3.4873 H       
  67 H67            5.3601     4.0590    -2.5559 H       
  68 H68            3.6669     6.8100     1.2783 H       
@<TRIPOS>BOND
   1    1    2 ar
   2    1    6 ar
   3    1   37 1
   4    2    3 ar
   5    2   38 1
   6    3    4 ar
   7    3   39 1
   8    4    5 ar
   9    4    7 ar
  10    5    6 ar
  11    5   10 ar
  12    6   40 1
  13    7    8 ar
  14    7   16 1
  15    8    9 ar
  16    8   41 1
  17    9   10 ar
  18    9   11 1
  19   10   13 1
  20   11   12 am
  21   11   14 2
  22   12   13 1
  23   12   15 1
  24   13   42 1
  25   13   43 1
  26   15   31 1
  27   15   32 1
  28   15   44 1
  29   16   17 1
  30   16   45 1
  31   16   46 1
  32   17   18 1
  33   17   22 1
  34   18   19 1
  35   18   47 1
  36   18   48 1
  37   19   20 1
  38   19   49 1
  39   19   50 1
  40   20   21 1
  41   20   23 1
  42   20   29 1
  43   21   22 1
  44   21   51 1
  45   21   52 1
  46   22   53 1
  47   22   54 1
  48   23   24 ar
  49   23   25 ar
  50   24   28 ar
  51   24   55 1
  52   25   26 ar
  53   26   27 ar
  54   26   56 1
  55   27   28 ar
  56   27   57 1
  57   28   58 1
  58   29   30 3
  59   31   35 1
  60   31   59 1
  61   31   60 1
  62   32   33 1
  63   32   36 1
  64   32   61 1
  65   33   34 1
  66   33   62 1
  67   33   63 1
  68   34   35 1
  69   34   64 1
  70   34   65 1
  71   35   66 1
  72   35   67 1
  73   36   68 1

#	End of record

