#	Name: ASD01180302
#	Creating user name:	WinNT
#	Creation time:	15. 06. 2019 19:07

#	Modifying user name:	WinNT
#	Modification time:	15. 06. 2019 19:07

#	Program:	/corina/corina34_cracker 3.40 0067  02.08.2006

@<TRIPOS>MOLECULE
ASD01180302
  64   66    0    0    0
SMALL
NO_CHARGES


@<TRIPOS>ATOM
   1 C1            -2.6062    -1.6019    -5.7513 C.2     
   2 C2            -2.0222    -2.3777    -4.5989 C.3     
   3 C3            -1.0252    -3.4088    -5.1313 C.3     
   4 O4            -2.2604    -1.8485    -6.8825 O.2     
   5 O5            -3.5146    -0.6408    -5.5217 O.3     
   6 C6             0.4505    -5.1318    -4.2420 C.2     
   7 C7             1.0222    -5.8913    -3.1136 C.ar    
   8 C8             1.9684    -6.9023    -3.3428 C.ar    
   9 C9             2.4721    -7.5811    -2.2665 C.ar    
  10 C10            2.0348    -7.2519    -0.9845 C.ar    
  11 N11            1.1393    -6.2924    -0.7956 N.ar    
  12 C12            0.6342    -5.6108    -1.8027 C.ar    
  13 O13            0.7985    -5.3800    -5.3803 O.2     
  14 N14           -0.4575    -4.1630    -4.0109 N.am    
  15 N15            2.5422    -7.9365     0.1067 N.pl3   
  16 C16            3.6162    -8.9157    -0.0777 C.3     
  17 C17            4.3828    -9.0853     1.2355 C.3     
  18 C18            5.0452    -7.7591     1.6143 C.3     
  19 C19            5.6944    -7.8890     2.9936 C.3     
  20 C20            1.9364   -12.6707    -1.2429 C.ar    
  21 C21            3.1160   -12.2196    -1.8316 C.ar    
  22 C22            3.6540   -11.0068    -1.4514 C.ar    
  23 C23            3.0242   -10.2393    -0.4883 C.ar    
  24 C24            1.8532   -10.6825     0.0996 C.ar    
  25 C25            1.3064   -11.8937    -0.2729 C.ar    
  26 C26            1.3499   -13.9709    -1.6520 C.ar    
  27 C27            0.1702   -14.4220    -1.0634 C.ar    
  28 C28           -0.3709   -15.6322    -1.4476 C.ar    
  29 C29            0.2559   -16.3970    -2.4148 C.ar    
  30 C30            1.4274   -15.9543    -3.0021 C.ar    
  31 C31            1.9737   -14.7426    -2.6302 C.ar    
  32 C32           -0.3394   -17.7178    -2.8298 C.3     
  33 F33           -1.2242   -17.5164    -3.8946 F       
  34 F34            0.6829   -18.5848    -3.2304 F       
  35 F35           -1.0296   -18.2782    -1.7496 F       
  36 C36            6.1149    -7.4091     0.5780 C.3     
  37 H37           -1.5105    -1.6932    -3.9223 H       
  38 H38           -2.8218    -2.8886    -4.0625 H       
  39 H39           -1.5369    -4.0933    -5.8078 H       
  40 H40           -0.2256    -2.8979    -5.6676 H       
  41 H41           -3.8606    -0.1705    -6.2925 H       
  42 H42            2.2913    -7.1394    -4.3457 H       
  43 H43            3.2014    -8.3649    -2.4091 H       
  44 H44           -0.0895    -4.8319    -1.6132 H       
  45 H45           -0.7351    -3.9650    -3.1028 H       
  46 H46            2.1866    -7.7679     0.9932 H       
  47 H47            4.2974    -8.5661    -0.8535 H       
  48 H48            3.6917    -9.3844     2.0236 H       
  49 H49            5.1480    -9.8518     1.1131 H       
  50 H50            4.2924    -6.9712     1.6398 H       
  51 H51            6.4472    -8.6769     2.9681 H       
  52 H52            6.1663    -6.9443     3.2635 H       
  53 H53            4.9323    -8.1384     3.7319 H       
  54 H54            3.6086   -12.8181    -2.5837 H       
  55 H55            4.5683   -10.6562    -1.9070 H       
  56 H56            1.3657   -10.0794     0.8514 H       
  57 H57            0.3916   -12.2384     0.1862 H       
  58 H58           -0.3196   -13.8260    -0.3076 H       
  59 H59           -1.2851   -15.9828    -0.9920 H       
  60 H60            1.9129   -16.5556    -3.7565 H       
  61 H61            2.8856   -14.3954    -3.0931 H       
  62 H62            6.6169    -6.4870     0.8712 H       
  63 H63            6.8440    -8.2174     0.5211 H       
  64 H64            5.6461    -7.2735    -0.3966 H       
@<TRIPOS>BOND
   1    1    2 1
   2    1    4 2
   3    1    5 1
   4    2    3 1
   5    2   37 1
   6    2   38 1
   7    3   14 1
   8    3   39 1
   9    3   40 1
  10    5   41 1
  11    6    7 1
  12    6   13 2
  13    6   14 am
  14    7    8 ar
  15    7   12 ar
  16    8    9 ar
  17    8   42 1
  18    9   10 ar
  19    9   43 1
  20   10   11 ar
  21   10   15 1
  22   11   12 ar
  23   12   44 1
  24   14   45 1
  25   15   16 1
  26   15   46 1
  27   16   17 1
  28   16   23 1
  29   16   47 1
  30   17   18 1
  31   17   48 1
  32   17   49 1
  33   18   19 1
  34   18   36 1
  35   18   50 1
  36   19   51 1
  37   19   52 1
  38   19   53 1
  39   20   21 ar
  40   20   25 ar
  41   20   26 1
  42   21   22 ar
  43   21   54 1
  44   22   23 ar
  45   22   55 1
  46   23   24 ar
  47   24   25 ar
  48   24   56 1
  49   25   57 1
  50   26   27 ar
  51   26   31 ar
  52   27   28 ar
  53   27   58 1
  54   28   29 ar
  55   28   59 1
  56   29   30 ar
  57   29   32 1
  58   30   31 ar
  59   30   60 1
  60   31   61 1
  61   32   33 1
  62   32   34 1
  63   32   35 1
  64   36   62 1
  65   36   63 1
  66   36   64 1

#	End of record

