#	Name: ASD01908072
#	Creating user name:	WinNT
#	Creation time:	15. 06. 2019 19:54

#	Modifying user name:	WinNT
#	Modification time:	15. 06. 2019 19:54

#	Program:	/corina/corina34_cracker 3.40 0067  02.08.2006

@<TRIPOS>MOLECULE
ASD01908072
  30   31    0    0    0
SMALL
NO_CHARGES


@<TRIPOS>ATOM
   1 N1            -0.0169     1.3952     0.0097 N.pl3   
   2 N2             0.0021    -0.0041     0.0020 N.2     
   3 C3             1.2422    -0.4097    -0.0120 C.2     
   4 C4             2.0758     0.7309    -0.0138 C.2     
   5 C5             1.2522     1.8381    -0.0000 C.2     
   6 C6             3.5078     0.7369    -0.0275 C.1     
   7 N7             4.6437     0.7417    -0.0383 N.1     
   8 C8             1.6943     3.2788     0.0030 C.3     
   9 C9            -1.2171     2.2353     0.0202 C.3     
  10 C10           -1.6212     2.5161     1.4446 C.ar    
  11 C11           -1.1192     3.6262     2.0983 C.ar    
  12 C12           -1.4882     3.8859     3.4040 C.ar    
  13 C13           -2.3631     3.0316     4.0593 C.ar    
  14 C14           -2.8654     1.9184     3.4012 C.ar    
  15 C15           -2.4978     1.6663     2.0936 C.ar    
  16 O16           -2.7272     3.2846     5.3440 O.3     
  17 C17           -3.6314     2.3625     5.9556 C.3     
  18 H18            1.5734    -1.4376    -0.0204 H       
  19 H19            1.8106     3.6210     1.0314 H       
  20 H20            2.6469     3.3677    -0.5193 H       
  21 H21            0.9453     3.8898    -0.5007 H       
  22 H22           -1.0070     3.1753    -0.4900 H       
  23 H23           -2.0277     1.7171    -0.4921 H       
  24 H24           -0.4379     4.2907     1.5879 H       
  25 H25           -1.0955     4.7529     3.9144 H       
  26 H26           -3.5466     1.2519     3.9092 H       
  27 H27           -2.8922     0.8024     1.5792 H       
  28 H28           -3.8390     2.6806     6.9773 H       
  29 H29           -4.5613     2.3346     5.3877 H       
  30 H30           -3.1835     1.3688     5.9684 H       
@<TRIPOS>BOND
   1    1    2 1
   2    1    5 1
   3    1    9 1
   4    2    3 2
   5    3    4 1
   6    3   18 1
   7    4    5 2
   8    4    6 1
   9    5    8 1
  10    6    7 3
  11    8   19 1
  12    8   20 1
  13    8   21 1
  14    9   10 1
  15    9   22 1
  16    9   23 1
  17   10   11 ar
  18   10   15 ar
  19   11   12 ar
  20   11   24 1
  21   12   13 ar
  22   12   25 1
  23   13   14 ar
  24   13   16 1
  25   14   15 ar
  26   14   26 1
  27   15   27 1
  28   16   17 1
  29   17   28 1
  30   17   29 1
  31   17   30 1

#	End of record

