#	Name: ASD02508115
#	Creating user name:	WinNT
#	Creation time:	15. 06. 2019 20:23

#	Modifying user name:	WinNT
#	Modification time:	15. 06. 2019 20:23

#	Program:	/corina/corina34_cracker 3.40 0067  02.08.2006

@<TRIPOS>MOLECULE
ASD02508115
  34   36    0    0    0
SMALL
NO_CHARGES


@<TRIPOS>ATOM
   1 C1             0.0186     1.4428    -0.1141 C.ar    
   2 C2             0.0160     0.0661     0.0458 C.ar    
   3 C3             1.2245     2.1306    -0.2491 C.ar    
   4 C4             2.4217     1.4335    -0.2229 C.ar    
   5 C5             2.4157     0.0556    -0.0627 C.ar    
   6 C6             1.2113    -0.6267     0.0716 C.ar    
   7 N7            -0.9962     2.4005    -0.1846 N.am    
   8 C8            -0.4076     3.6019    -0.3476 C.2     
   9 O9             0.9249     3.4456    -0.3880 O.3     
  10 N10            3.6245    -0.6495    -0.0361 N.am    
  11 S11            4.9610     0.0248     0.6719 S.o2    
  12 C12            4.5822     0.2680     2.3754 C.ar    
  13 C13            4.8537    -0.7327     3.2969 C.ar    
  14 O14           -0.9933     4.6629    -0.4473 O.2     
  15 O15            5.9815    -0.9630     0.6248 O.2     
  16 O16            5.1057     1.3194     0.1042 O.2     
  17 Cl17           1.2096    -2.3512     0.2712 Cl      
  18 C18            4.0189     1.4593     2.7964 C.ar    
  19 C19            3.7218     1.6499     4.1359 C.ar    
  20 C20            3.9869     0.6508     5.0533 C.ar    
  21 C21            4.5543    -0.5385     4.6375 C.ar    
  22 O22            5.4117    -1.9020     2.8868 O.3     
  23 C23            5.6636    -2.8877     3.8903 C.3     
  24 F24            3.7590     2.4371     1.9012 F       
  25 H25           -0.9189    -0.4644     0.1505 H       
  26 H26            3.3578     1.9619    -0.3273 H       
  27 H27           -1.9496     2.2316    -0.1272 H       
  28 H28            3.6793    -1.5332    -0.4323 H       
  29 H29            3.2827     2.5805     4.4638 H       
  30 H30            3.7545     0.8015     6.0972 H       
  31 H31            4.7609    -1.3184     5.3554 H       
  32 H32            6.3484    -2.4816     4.6348 H       
  33 H33            4.7256    -3.1639     4.3719 H       
  34 H34            6.1090    -3.7695     3.4297 H       
@<TRIPOS>BOND
   1    1    2 ar
   2    1    3 ar
   3    1    7 1
   4    2    6 ar
   5    2   25 1
   6    3    4 ar
   7    3    9 1
   8    4    5 ar
   9    4   26 1
  10    5    6 ar
  11    5   10 1
  12    6   17 1
  13    7    8 am
  14    7   27 1
  15    8    9 1
  16    8   14 2
  17   10   11 am
  18   10   28 1
  19   11   12 1
  20   11   15 2
  21   11   16 2
  22   12   13 ar
  23   12   18 ar
  24   13   22 1
  25   13   21 ar
  26   18   19 ar
  27   18   24 1
  28   19   20 ar
  29   19   29 1
  30   20   21 ar
  31   20   30 1
  32   21   31 1
  33   22   23 1
  34   23   32 1
  35   23   33 1
  36   23   34 1

#	End of record

