#	Name: ASD01890223
#	Creating user name:	WinNT
#	Creation time:	15. 06. 2019 19:50

#	Modifying user name:	WinNT
#	Modification time:	15. 06. 2019 19:50

#	Program:	/corina/corina34_cracker 3.40 0067  02.08.2006

@<TRIPOS>MOLECULE
ASD01890223
  51   54    0    0    0
SMALL
NO_CHARGES


@<TRIPOS>ATOM
   1 C1            -0.5718    -0.4106    -1.2298 C.2     
   2 C2             0.1550    -0.0255     0.0329 C.3     
   3 C3             1.5403    -0.6750     0.0423 C.3     
   4 C4             2.3358    -0.1621     1.2444 C.3     
   5 O5             0.0019    -1.0348    -2.0906 O.2     
   6 O6            -1.8581    -0.0648    -1.3959 O.3     
   7 C7             2.5959     1.3134     1.0821 C.2     
   8 N8             3.1801     1.8586     0.0552 N.2     
   9 C9             3.2529     3.2031     0.2314 C.ar    
  10 C10            2.6599     3.4862     1.4733 C.ar    
  11 N11            2.2490     2.2694     1.9850 N.pl3   
  12 C12            3.7678     4.2480    -0.5401 C.ar    
  13 C13            3.6887     5.5459    -0.0750 C.ar    
  14 C14            3.0996     5.8183     1.1565 C.ar    
  15 C15            2.5887     4.7960     1.9266 C.ar    
  16 O16            4.1896     6.5638    -0.8243 O.3     
  17 C17            3.4550     6.9994    -1.8811 C.ar    
  18 C18            3.8851     8.0894    -2.6244 C.ar    
  19 C19            3.1363     8.5303    -3.6982 C.ar    
  20 C20            1.9592     7.8865    -4.0327 C.ar    
  21 C21            1.5282     6.8004    -3.2934 C.ar    
  22 C22            2.2763     6.3517    -2.2224 C.ar    
  23 C23            1.3927    -2.1716     0.1391 C.ar    
  24 C24            1.8975    -2.9817    -0.8608 C.ar    
  25 C25            1.7625    -4.3544    -0.7726 C.ar    
  26 C26            1.1221    -4.9177     0.3168 C.ar    
  27 C27            0.6172    -4.1064     1.3173 C.ar    
  28 C28            0.7577    -2.7341     1.2307 C.ar    
  29 Cl29           0.9517    -6.6417     0.4280 Cl      
  30 C30           -2.4945    -0.4691    -2.6368 C.3     
  31 H31            0.2616     1.0585     0.0747 H       
  32 H32           -0.4129    -0.3683     0.8979 H       
  33 H33            2.0671    -0.4205    -0.8774 H       
  34 H34            1.7650    -0.3321     2.1572 H       
  35 H35            3.2854    -0.6939     1.3053 H       
  36 H36            1.7984     2.1243     2.8316 H       
  37 H37            4.2260     4.0415    -1.4960 H       
  38 H38            3.0430     6.8370     1.5108 H       
  39 H39            2.1325     5.0139     2.8810 H       
  40 H40            4.8042     8.5928    -2.3633 H       
  41 H41            3.4704     9.3788    -4.2768 H       
  42 H42            1.3753     8.2328    -4.8727 H       
  43 H43            0.6080     6.2998    -3.5564 H       
  44 H44            1.9418     5.5001    -1.6485 H       
  45 H45            2.3971    -2.5419    -1.7114 H       
  46 H46            2.1566    -4.9872    -1.5541 H       
  47 H47            0.1172    -4.5455     2.1679 H       
  48 H48            0.3675    -2.1009     2.0137 H       
  49 H49           -3.5295    -0.1273    -2.6425 H       
  50 H50           -1.9615    -0.0278    -3.4790 H       
  51 H51           -2.4701    -1.5556    -2.7204 H       
@<TRIPOS>BOND
   1    1    2 1
   2    1    5 2
   3    1    6 1
   4    2    3 1
   5    2   31 1
   6    2   32 1
   7    3    4 1
   8    3   23 1
   9    3   33 1
  10    4    7 1
  11    4   34 1
  12    4   35 1
  13    6   30 1
  14    7    8 2
  15    7   11 1
  16    8    9 1
  17    9   10 ar
  18    9   12 ar
  19   10   11 1
  20   10   15 ar
  21   11   36 1
  22   12   13 ar
  23   12   37 1
  24   13   14 ar
  25   13   16 1
  26   14   15 ar
  27   14   38 1
  28   15   39 1
  29   16   17 1
  30   17   18 ar
  31   17   22 ar
  32   18   19 ar
  33   18   40 1
  34   19   20 ar
  35   19   41 1
  36   20   21 ar
  37   20   42 1
  38   21   22 ar
  39   21   43 1
  40   22   44 1
  41   23   24 ar
  42   23   28 ar
  43   24   25 ar
  44   24   45 1
  45   25   26 ar
  46   25   46 1
  47   26   27 ar
  48   26   29 1
  49   27   28 ar
  50   27   47 1
  51   28   48 1
  52   30   49 1
  53   30   50 1
  54   30   51 1

#	End of record

