#	Name: ASD08830170
#	Creating user name:	WinNT
#	Creation time:	15. 06. 2019 21:19

#	Modifying user name:	WinNT
#	Modification time:	15. 06. 2019 21:19

#	Program:	/corina/corina34_cracker 3.40 0067  02.08.2006

@<TRIPOS>MOLECULE
ASD08830170
  63   66    0    0    0
SMALL
NO_CHARGES


@<TRIPOS>ATOM
   1 C1            -0.0499     1.3780    -0.1305 C.ar    
   2 C2            -0.0394    -0.0198    -0.1269 C.ar    
   3 C3             1.1726     2.0472    -0.2324 C.ar    
   4 C4             2.3345     1.3084    -0.3248 C.ar    
   5 N5             2.3007    -0.0103    -0.3178 N.ar    
   6 C6             1.1680    -0.6802    -0.2233 C.ar    
   7 C7             1.1934    -2.1870    -0.2205 C.3     
   8 C8             1.9194    -2.6794    -1.4459 C.2     
   9 C9             2.0797    -4.1242    -1.6754 C.ar    
  10 C10            2.7527    -4.5851    -2.8113 C.ar    
  11 C11            1.5646    -5.0433    -0.7557 C.ar    
  12 C12            1.7188    -6.3954    -0.9778 C.ar    
  13 C13            2.3816    -6.8437    -2.1071 C.ar    
  14 C14            2.8987    -5.9403    -3.0193 C.ar    
  15 C15            2.5465    -8.3232    -2.3416 C.3     
  16 C16            1.1685    -8.9818    -2.4329 C.3     
  17 C17            3.3080    -8.5506    -3.6489 C.3     
  18 C18            3.3303    -8.9393    -1.1810 C.3     
  19 O19            2.3715    -1.8851    -2.2428 O.2     
  20 C20           -1.3251     2.1307    -0.0350 C.ar    
  21 C21           -1.3150     3.5218    -0.0402 C.ar    
  22 C22           -2.5165     4.2220     0.0494 C.ar    
  23 C23           -3.7223     3.5235     0.1437 C.ar    
  24 C24           -3.7241     2.1433     0.1487 C.ar    
  25 C25           -2.5358     1.4449     0.0543 C.ar    
  26 C26           -2.5149     5.7006     0.0451 C.2     
  27 N27           -3.4771     6.3736    -0.6165 N.am    
  28 O28           -1.6458     6.3091     0.6382 O.2     
  29 C29           -3.5697     7.8399    -0.5334 C.3     
  30 C30           -3.6569     8.4003    -1.9576 C.3     
  31 O31           -4.7098     7.7365    -2.6610 O.3     
  32 C32           -4.5094     6.3303    -2.8235 C.3     
  33 C33           -4.4624     5.6644    -1.4482 C.3     
  34 H34           -0.9628    -0.5745    -0.0494 H       
  35 H35            1.2076     3.1266    -0.2391 H       
  36 H36            3.2842     1.8166    -0.4043 H       
  37 H37            1.7081    -2.5401     0.6731 H       
  38 H38            0.1721    -2.5676    -0.2259 H       
  39 H39            3.1568    -3.8814    -3.5240 H       
  40 H40            1.0478    -4.6950     0.1264 H       
  41 H41            1.3216    -7.1065    -0.2685 H       
  42 H42            3.4143    -6.2979    -3.8983 H       
  43 H43            0.6101    -8.5429    -3.2597 H       
  44 H44            1.2877   -10.0519    -2.6025 H       
  45 H45            0.6259    -8.8198    -1.5015 H       
  46 H46            4.2897    -8.0814    -3.5839 H       
  47 H47            3.4273    -9.6207    -3.8185 H       
  48 H48            2.7496    -8.1117    -4.4758 H       
  49 H49            2.7877    -8.7773    -0.2496 H       
  50 H50            3.4496   -10.0094    -1.3506 H       
  51 H51            4.3120    -8.4701    -1.1160 H       
  52 H52           -0.3797     4.0570    -0.1129 H       
  53 H53           -4.6546     4.0642     0.2132 H       
  54 H54           -4.6586     1.6070     0.2225 H       
  55 H55           -2.5440     0.3649     0.0584 H       
  56 H56           -4.4617     8.1202     0.0267 H       
  57 H57           -2.6841     8.2361    -0.0366 H       
  58 H58           -3.8644     9.4695    -1.9161 H       
  59 H59           -2.7117     8.2319    -2.4737 H       
  60 H60           -5.3302     5.9104    -3.4049 H       
  61 H61           -3.5672     6.1545    -3.3427 H       
  62 H62           -4.1701     4.6199    -1.5559 H       
  63 H63           -5.4435     5.7249    -0.9772 H       
@<TRIPOS>BOND
   1    1    2 ar
   2    1    3 ar
   3    1   20 1
   4    2    6 ar
   5    2   34 1
   6    3    4 ar
   7    3   35 1
   8    4    5 ar
   9    4   36 1
  10    5    6 ar
  11    6    7 1
  12    7    8 1
  13    7   37 1
  14    7   38 1
  15    8    9 1
  16    8   19 2
  17    9   10 ar
  18    9   11 ar
  19   10   14 ar
  20   10   39 1
  21   11   12 ar
  22   11   40 1
  23   12   13 ar
  24   12   41 1
  25   13   14 ar
  26   13   15 1
  27   14   42 1
  28   15   16 1
  29   15   17 1
  30   15   18 1
  31   16   43 1
  32   16   44 1
  33   16   45 1
  34   17   46 1
  35   17   47 1
  36   17   48 1
  37   18   49 1
  38   18   50 1
  39   18   51 1
  40   20   21 ar
  41   20   25 ar
  42   21   22 ar
  43   21   52 1
  44   22   23 ar
  45   22   26 1
  46   23   24 ar
  47   23   53 1
  48   24   25 ar
  49   24   54 1
  50   25   55 1
  51   26   27 am
  52   26   28 2
  53   27   29 1
  54   27   33 1
  55   29   30 1
  56   29   56 1
  57   29   57 1
  58   30   31 1
  59   30   58 1
  60   30   59 1
  61   31   32 1
  62   32   33 1
  63   32   60 1
  64   32   61 1
  65   33   62 1
  66   33   63 1

#	End of record

