#	Name: ASD03090286
#	Creating user name:	WinNT
#	Creation time:	15. 06. 2019 20:28

#	Modifying user name:	WinNT
#	Modification time:	15. 06. 2019 20:28

#	Program:	/corina/corina34_cracker 3.40 0067  02.08.2006

@<TRIPOS>MOLECULE
ASD03090286
  55   58    0    0    0
SMALL
NO_CHARGES


@<TRIPOS>ATOM
   1 C1            -0.0604     1.4609    -0.3032 C.ar    
   2 C2            -0.2016     0.4209     0.6042 C.ar    
   3 C3            -1.3831    -0.2980     0.6552 C.ar    
   4 C4            -2.4346     0.0284    -0.2114 C.ar    
   5 C5            -2.2834     1.0764    -1.1203 C.ar    
   6 C6            -1.1044     1.7890    -1.1595 C.ar    
   7 C7            -3.6988    -0.7347    -0.1633 C.2     
   8 N8            -5.5969    -3.6936    -0.0930 N.pl3   
   9 C9            -4.7219    -4.7747    -0.2411 C.ar    
  10 C10           -3.5643    -4.6342    -0.9953 C.ar    
  11 C11           -2.7014    -5.7031    -1.1398 C.ar    
  12 C12           -2.9898    -6.9139    -0.5334 C.ar    
  13 C13           -4.1439    -7.0564     0.2188 C.ar    
  14 C14           -5.0066    -5.9889     0.3707 C.ar    
  15 N15           -3.8127    -2.0487    -0.1604 N.2     
  16 C16           -5.1026    -2.3880    -0.1104 C.2     
  17 N17           -5.8319    -1.2969    -0.0807 N.2     
  18 N18           -4.9441    -0.2094    -0.1086 N.pl3   
  19 C19           -5.2969     1.2124    -0.0905 C.3     
  20 F20           -2.1444    -7.9579    -0.6761 F       
  21 C21           -5.2519     1.7231     1.3266 C.2     
  22 N22           -5.5423     3.0131     1.5876 N.am    
  23 O23           -4.9545     0.9733     2.2323 O.2     
  24 C24           -5.4986     3.5095     2.9652 C.3     
  25 C25           -5.2521     5.0056     3.1695 C.3     
  26 C26           -6.6410     4.4172     3.4256 C.3     
  27 O27           -1.5227    -1.3167     1.5420 O.3     
  28 C28           -0.4088    -1.5928     2.3936 C.3     
  29 O29            1.1004     2.1645    -0.3507 O.3     
  30 C30            1.1791     3.2224    -1.3082 C.3     
  31 C31           -4.4555    -8.3759     0.8768 C.3     
  32 F32           -5.6635    -8.2749     1.5752 F       
  33 F33           -4.5640    -9.3705    -0.1011 F       
  34 F34           -3.4284    -8.7072     1.7670 F       
  35 H35            0.6109     0.1720     1.2707 H       
  36 H36           -3.0913     1.3314    -1.7901 H       
  37 H37           -0.9887     2.6001    -1.8632 H       
  38 H38           -6.5472    -3.8510     0.0218 H       
  39 H39           -3.3391    -3.6900    -1.4688 H       
  40 H40           -1.8012    -5.5943    -1.7265 H       
  41 H41           -5.9064    -6.1006     0.9574 H       
  42 H42           -4.5869     1.7708    -0.7006 H       
  43 H43           -6.3019     1.3425    -0.4919 H       
  44 H44           -5.7802     3.6128     0.8633 H       
  45 H45           -5.0729     2.8246     3.6985 H       
  46 H46           -4.6645     5.3050     4.0374 H       
  47 H47           -5.1224     5.6206     2.2789 H       
  48 H48           -7.4251     4.6450     2.7035 H       
  49 H49           -6.9672     4.3295     4.4619 H       
  50 H50           -0.6523    -2.4271     3.0513 H       
  51 H51            0.4583    -1.8505     1.7855 H       
  52 H52           -0.1828    -0.7112     2.9934 H       
  53 H53            2.1560     3.7012    -1.2412 H       
  54 H54            1.0415     2.8163    -2.3104 H       
  55 H55            0.3999     3.9565    -1.1034 H       
@<TRIPOS>BOND
   1    1    2 ar
   2    1   29 1
   3    1    6 ar
   4    2    3 ar
   5    2   35 1
   6    3    4 ar
   7    3   27 1
   8    4    5 ar
   9    4    7 1
  10    5    6 ar
  11    5   36 1
  12    6   37 1
  13    7   15 2
  14    7   18 1
  15    8    9 1
  16    8   16 1
  17    8   38 1
  18    9   10 ar
  19    9   14 ar
  20   10   11 ar
  21   10   39 1
  22   11   12 ar
  23   11   40 1
  24   12   13 ar
  25   12   20 1
  26   13   14 ar
  27   13   31 1
  28   14   41 1
  29   15   16 1
  30   16   17 2
  31   17   18 1
  32   18   19 1
  33   19   21 1
  34   19   42 1
  35   19   43 1
  36   21   22 am
  37   21   23 2
  38   22   24 1
  39   22   44 1
  40   24   25 1
  41   24   26 1
  42   24   45 1
  43   25   26 1
  44   25   46 1
  45   25   47 1
  46   26   48 1
  47   26   49 1
  48   27   28 1
  49   28   50 1
  50   28   51 1
  51   28   52 1
  52   29   30 1
  53   30   53 1
  54   30   54 1
  55   30   55 1
  56   31   32 1
  57   31   33 1
  58   31   34 1

#	End of record

