#	Name: ASD01883377
#	Creating user name:	WinNT
#	Creation time:	15. 06. 2019 19:46

#	Modifying user name:	WinNT
#	Modification time:	15. 06. 2019 19:46

#	Program:	/corina/corina34_cracker 3.40 0067  02.08.2006

@<TRIPOS>MOLECULE
ASD01883377
  54   56    0    0    0
SMALL
NO_CHARGES


@<TRIPOS>ATOM
   1 N1            -0.2043     1.6560     0.0400 N.am    
   2 C2            -0.8867     1.5307     1.1933 C.2     
   3 C3            -2.0734     0.7609     1.2309 C.2     
   4 C4            -2.5130     0.1405     0.0493 C.2     
   5 C5            -1.7561     0.3088    -1.1250 C.2     
   6 C6            -0.6333     1.0597    -1.1027 C.2     
   7 O7            -0.4827     2.0795     2.2046 O.2     
   8 C8            -2.8117     0.6167     2.4494 C.1     
   9 N9            -3.3974     0.5022     3.4160 N.1     
  10 C10            1.0226     2.4563     0.0152 C.3     
  11 C11            2.2216     1.5617     0.3359 C.3     
  12 C12            3.5029     2.3976     0.3100 C.3     
  13 N13           -3.6619    -0.6180     0.0407 N.pl3   
  14 C14           -4.9731    -0.0050     0.3021 C.3     
  15 C15           -5.9328    -0.4108    -0.8215 C.3     
  16 N16           -5.9452    -1.8745    -0.9458 N.3     
  17 C17           -4.6241    -2.3876    -1.3326 C.3     
  18 C18           -3.6115    -2.0616    -0.2360 C.3     
  19 C19            3.4587     3.4338     1.4348 C.3     
  20 C20            4.7130     1.4823     0.5071 C.3     
  21 C21           -6.9230    -2.2901    -1.8421 C.ar    
  22 C22           -7.9822    -3.0719    -1.3930 C.ar    
  23 C23           -8.9486    -3.4782    -2.2957 C.ar    
  24 C24           -8.8225    -3.0874    -3.6220 C.ar    
  25 C25           -7.7449    -2.3108    -3.9986 C.ar    
  26 N26           -6.8408    -1.9337    -3.1148 N.ar    
  27 C27           -8.0755    -3.4714     0.0571 C.3     
  28 F28           -9.2686    -4.1692     0.2728 F       
  29 F29           -6.9901    -4.2906     0.3859 F       
  30 F30           -8.0542    -2.3251     0.8589 F       
  31 H31           -2.0747    -0.1591    -2.0447 H       
  32 H32           -0.0605     1.1817    -2.0102 H       
  33 H33            1.1506     2.8944    -0.9746 H       
  34 H34            0.9531     3.2509     0.7580 H       
  35 H35            2.0936     1.1236     1.3258 H       
  36 H36            2.2911     0.7671    -0.4069 H       
  37 H37            3.5851     2.9068    -0.6502 H       
  38 H38           -5.3585    -0.3585     1.2584 H       
  39 H39           -4.8723     1.0802     0.3234 H       
  40 H40           -6.9370    -0.0572    -0.5876 H       
  41 H41           -5.6008     0.0312    -1.7609 H       
  42 H42           -4.6792    -3.4675    -1.4694 H       
  43 H43           -4.3103    -1.9180    -2.2649 H       
  44 H44           -2.6106    -2.3376    -0.5681 H       
  45 H45           -3.8640    -2.6113     0.6707 H       
  46 H46            4.3715     4.0293     1.4163 H       
  47 H47            2.5966     4.0859     1.2943 H       
  48 H48            3.3764     2.9246     2.3950 H       
  49 H49            4.7445     0.7440    -0.2942 H       
  50 H50            5.6258     2.0777     0.4887 H       
  51 H51            4.6308     0.9730     1.4673 H       
  52 H52           -9.7821    -4.0860    -1.9760 H       
  53 H53           -9.5598    -3.3881    -4.3517 H       
  54 H54           -7.6428    -2.0048    -5.0294 H       
@<TRIPOS>BOND
   1    1    2 am
   2    1   10 1
   3    1    6 1
   4    2    3 1
   5    2    7 2
   6    3    4 2
   7    3    8 1
   8    4    5 1
   9    4   13 1
  10    5    6 2
  11    5   31 1
  12    6   32 1
  13    8    9 3
  14   10   11 1
  15   10   33 1
  16   10   34 1
  17   11   12 1
  18   11   35 1
  19   11   36 1
  20   12   19 1
  21   12   20 1
  22   12   37 1
  23   13   14 1
  24   13   18 1
  25   14   15 1
  26   14   38 1
  27   14   39 1
  28   15   16 1
  29   15   40 1
  30   15   41 1
  31   16   17 1
  32   16   21 1
  33   17   18 1
  34   17   42 1
  35   17   43 1
  36   18   44 1
  37   18   45 1
  38   19   46 1
  39   19   47 1
  40   19   48 1
  41   20   49 1
  42   20   50 1
  43   20   51 1
  44   21   22 ar
  45   21   26 ar
  46   22   23 ar
  47   22   27 1
  48   23   24 ar
  49   23   52 1
  50   24   25 ar
  51   24   53 1
  52   25   26 ar
  53   25   54 1
  54   27   28 1
  55   27   29 1
  56   27   30 1

#	End of record

