#	Name: ASD01900198
#	Creating user name:	WinNT
#	Creation time:	15. 06. 2019 19:51

#	Modifying user name:	WinNT
#	Modification time:	15. 06. 2019 19:51

#	Program:	/corina/corina34_cracker 3.40 0067  02.08.2006

@<TRIPOS>MOLECULE
ASD01900198
  44   47    0    0    0
SMALL
NO_CHARGES


@<TRIPOS>ATOM
   1 N1            -0.0167     1.3829     0.0096 N.pl3   
   2 S2            -1.3899    -1.0571     0.1271 S.3     
   3 C3             0.0162    -0.0037    -0.0050 C.2     
   4 N4             1.0881    -0.7279    -0.1188 N.2     
   5 C5             0.9318    -2.0399    -0.1304 C.2     
   6 C6             1.9716    -3.0902    -0.3924 C.2     
   7 C7             1.6683    -4.1713    -1.2450 C.2     
   8 C8             0.3875    -4.2671    -2.0166 C.3     
   9 C9            -0.8073    -4.6732    -1.1364 C.3     
  10 C10           -0.7175    -3.9068     0.1926 C.3     
  11 C11           -0.3437    -2.4656     0.0425 C.2     
  12 N12            2.6970    -4.9685    -1.2437 N.2     
  13 N13            3.6984    -4.4007    -0.4396 N.pl3   
  14 C14            3.2262    -3.2337     0.0653 C.2     
  15 C15            1.1713     2.1071     0.0038 C.ar    
  16 C16            1.1318     3.4932    -0.0935 C.ar    
  17 C17            2.3197     4.2046    -0.0984 C.ar    
  18 C18            3.5123     3.5041    -0.0056 C.ar    
  19 C19            3.4807     2.1201     0.0889 C.ar    
  20 N20            2.3286     1.4691     0.0965 N.ar    
  21 O21            4.6435     1.4271     0.1801 O.3     
  22 C22            4.5453     0.0046     0.2747 C.3     
  23 C23            5.9483    -0.5984     0.3686 C.3     
  24 O24            6.5660    -0.1801     1.5875 O.3     
  25 C25            7.8874    -0.6908     1.7746 C.3     
  26 H26           -0.8680     1.8477     0.0199 H       
  27 H27            0.1769    -3.2989    -2.4707 H       
  28 H28            0.5082    -5.0061    -2.8087 H       
  29 H29           -1.7384    -4.4195    -1.6432 H       
  30 H30           -0.7724    -5.7455    -0.9438 H       
  31 H31           -1.6846    -3.9642     0.6922 H       
  32 H32            0.0251    -4.3939     0.8245 H       
  33 H33            4.5763    -4.7782    -0.2734 H       
  34 H34            3.7576    -2.5504     0.7111 H       
  35 H35            0.1856     4.0091    -0.1647 H       
  36 H36            2.3171     5.2820    -0.1733 H       
  37 H37            4.4557     4.0297    -0.0072 H       
  38 H38            3.9750    -0.2618     1.1646 H       
  39 H39            4.0411    -0.3845    -0.6099 H       
  40 H40            5.8783    -1.6860     0.3514 H       
  41 H41            6.5468    -0.2594    -0.4769 H       
  42 H42            7.8576    -1.7803     1.7865 H       
  43 H43            8.5262    -0.3537     0.9582 H       
  44 H44            8.2865    -0.3279     2.7218 H       
@<TRIPOS>BOND
   1    1    3 1
   2    1   15 1
   3    1   26 1
   4    2    3 1
   5    2   11 1
   6    3    4 2
   7    4    5 1
   8    5    6 1
   9    5   11 2
  10    6    7 1
  11    6   14 2
  12    7    8 1
  13    7   12 2
  14    8    9 1
  15    8   27 1
  16    8   28 1
  17    9   10 1
  18    9   29 1
  19    9   30 1
  20   10   11 1
  21   10   31 1
  22   10   32 1
  23   12   13 1
  24   13   14 1
  25   13   33 1
  26   14   34 1
  27   15   16 ar
  28   15   20 ar
  29   16   17 ar
  30   16   35 1
  31   17   18 ar
  32   17   36 1
  33   18   19 ar
  34   18   37 1
  35   19   20 ar
  36   19   21 1
  37   21   22 1
  38   22   23 1
  39   22   38 1
  40   22   39 1
  41   23   24 1
  42   23   40 1
  43   23   41 1
  44   24   25 1
  45   25   42 1
  46   25   43 1
  47   25   44 1

#	End of record

