#	Name: ASD08070317
#	Creating user name:	WinNT
#	Creation time:	15. 06. 2019 21:14

#	Modifying user name:	WinNT
#	Modification time:	15. 06. 2019 21:14

#	Program:	/corina/corina34_cracker 3.40 0067  02.08.2006

@<TRIPOS>MOLECULE
ASD08070317
  44   45    0    0    0
SMALL
NO_CHARGES


@<TRIPOS>ATOM
   1 C1            -0.0182     1.4903     0.0102 C.2     
   2 C2             0.0021    -0.0041     0.0020 C.2     
   3 O3             1.0244     2.1113     0.0036 O.2     
   4 N4            -1.1944     2.1482     0.0194 N.am    
   5 O5            -1.0405    -0.6251     0.0086 O.2     
   6 N6             1.1783    -0.6620    -0.0127 N.am    
   7 C7             1.1981    -2.1268    -0.0208 C.3     
   8 C8             2.6473    -2.6171    -0.0373 C.3     
   9 C9             2.6678    -4.1240    -0.0456 C.2     
  10 C10            2.6678    -4.8870    -1.1397 C.2     
  11 C11            2.6891    -6.2502    -0.9001 C.2     
  12 C12            2.7064    -6.5942     0.3886 C.2     
  13 S13            2.7029    -5.1454     1.3859 S.3     
  14 C14           -1.2143     3.6131     0.0274 C.3     
  15 C15           -2.6418     4.0960     0.0368 C.ar    
  16 C16           -3.3599     4.1141     1.2244 C.ar    
  17 C17           -4.6728     4.5584     1.2324 C.ar    
  18 C18           -5.2655     4.9839     0.0533 C.ar    
  19 C19           -4.5434     4.9640    -1.1313 C.ar    
  20 C20           -3.2327     4.5258    -1.1356 C.ar    
  21 O21           -6.5527     5.4197     0.0579 O.3     
  22 C22           -7.0988     5.8430    -1.1930 C.3     
  23 O23           -2.7764     3.6960     2.3784 O.3     
  24 C24           -3.5747     3.7419     3.5627 C.3     
  25 H25           -2.0278     1.6519     0.0206 H       
  26 H26            2.0116    -0.1656    -0.0180 H       
  27 H27            0.6978    -2.5019     0.8720 H       
  28 H28            0.6808    -2.4923    -0.9079 H       
  29 H29            3.1477    -2.2421    -0.9301 H       
  30 H30            3.1647    -2.2516     0.8498 H       
  31 H31            2.6520    -4.4726    -2.1369 H       
  32 H32            2.6912    -6.9799    -1.6962 H       
  33 H33            2.7236    -7.6073     0.7623 H       
  34 H34           -0.7012     3.9785     0.9170 H       
  35 H35           -0.7097     3.9882    -0.8629 H       
  36 H36           -5.2334     4.5728     2.1555 H       
  37 H37           -5.0046     5.2953    -2.0500 H       
  38 H38           -2.6709     4.5152    -2.0579 H       
  39 H39           -8.1300     6.1653    -1.0488 H       
  40 H40           -6.5101     6.6727    -1.5842 H       
  41 H41           -7.0728     5.0138    -1.9000 H       
  42 H42           -4.4535     3.1101     3.4332 H       
  43 H43           -2.9900     3.3819     4.4092 H       
  44 H44           -3.8896     4.7686     3.7490 H       
@<TRIPOS>BOND
   1    1    2 1
   2    1    3 2
   3    1    4 am
   4    2    5 2
   5    2    6 am
   6    4   14 1
   7    4   25 1
   8    6    7 1
   9    6   26 1
  10    7    8 1
  11    7   27 1
  12    7   28 1
  13    8    9 1
  14    8   29 1
  15    8   30 1
  16    9   10 2
  17    9   13 1
  18   10   11 1
  19   10   31 1
  20   11   12 2
  21   11   32 1
  22   12   13 1
  23   12   33 1
  24   14   15 1
  25   14   34 1
  26   14   35 1
  27   15   16 ar
  28   15   20 ar
  29   16   17 ar
  30   16   23 1
  31   17   18 ar
  32   17   36 1
  33   18   19 ar
  34   18   21 1
  35   19   20 ar
  36   19   37 1
  37   20   38 1
  38   21   22 1
  39   22   39 1
  40   22   40 1
  41   22   41 1
  42   23   24 1
  43   24   42 1
  44   24   43 1
  45   24   44 1

#	End of record

