#	Name: ASD01148043
#	Creating user name:	WinNT
#	Creation time:	15. 06. 2019 19:01

#	Modifying user name:	WinNT
#	Modification time:	15. 06. 2019 19:01

#	Program:	/corina/corina34_cracker 3.40 0067  02.08.2006

@<TRIPOS>MOLECULE
ASD01148043
  43   44    0    0    0
SMALL
NO_CHARGES


@<TRIPOS>ATOM
   1 C1             2.7448    -1.4143    -0.7078 C.ar    
   2 C2             3.8929    -2.1420    -0.4564 C.ar    
   3 C3             5.0604    -1.4914    -0.1036 C.ar    
   4 C4             5.0799    -0.1128    -0.0026 C.ar    
   5 C5             3.9321     0.6150    -0.2549 C.ar    
   6 C6             2.7643    -0.0358    -0.6063 C.ar    
   7 C7             3.9532     2.1178    -0.1438 C.3     
   8 N8             4.3805     2.6975    -1.4242 N.3     
   9 C9             3.2836     2.6820    -2.4012 C.3     
  10 C10            2.4411     3.9492    -2.2421 C.3     
  11 O11            1.9661     4.0397    -0.8974 O.3     
  12 C12            3.8534     2.6294    -3.7953 C.2     
  13 O13            5.0482     2.5501    -3.9571 O.2     
  14 O14            3.0337     2.6706    -4.8574 O.3     
  15 C15            4.9008     4.0586    -1.2383 C.3     
  16 C16            5.6443     4.4858    -2.4775 C.ar    
  17 C17            5.0223     5.2905    -3.4137 C.ar    
  18 C18            6.9500     4.0776    -2.6754 C.ar    
  19 C19            7.6320     4.4694    -3.8121 C.ar    
  20 C20            7.0081     5.2692    -4.7513 C.ar    
  21 C21            5.7043     5.6824    -4.5505 C.ar    
  22 C22            1.0683     5.1280    -0.6701 C.3     
  23 F23            1.6785     6.3251    -1.0596 F       
  24 F24           -0.0981     4.9342    -1.4180 F       
  25 H25            1.8339    -1.9223    -0.9878 H       
  26 H26            3.8776    -3.2191    -0.5353 H       
  27 H27            5.9572    -2.0600     0.0934 H       
  28 H28            5.9919     0.3955     0.2737 H       
  29 H29            1.8676     0.5329    -0.8037 H       
  30 H30            2.9544     2.4779     0.1028 H       
  31 H31            4.6502     2.4144     0.6400 H       
  32 H32            2.6578     1.8059    -2.2312 H       
  33 H33            3.0516     4.8226    -2.4714 H       
  34 H34            1.5926     3.9095    -2.9252 H       
  35 H35            3.4455     2.6341    -5.7316 H       
  36 H36            4.0718     4.7430    -1.0578 H       
  37 H37            5.5781     4.0752    -0.3844 H       
  38 H38            4.0035     5.6129    -3.2572 H       
  39 H39            7.4375     3.4528    -1.9416 H       
  40 H40            8.6524     4.1511    -3.9664 H       
  41 H41            7.5410     5.5756    -5.6392 H       
  42 H42            5.2168     6.3072    -5.2842 H       
  43 H43            0.8167     5.1763     0.3894 H       
@<TRIPOS>BOND
   1    1    2 ar
   2    1    6 ar
   3    1   25 1
   4    2    3 ar
   5    2   26 1
   6    3    4 ar
   7    3   27 1
   8    4    5 ar
   9    4   28 1
  10    5    6 ar
  11    5    7 1
  12    6   29 1
  13    7    8 1
  14    7   30 1
  15    7   31 1
  16    8    9 1
  17    8   15 1
  18    9   10 1
  19    9   12 1
  20    9   32 1
  21   10   11 1
  22   10   33 1
  23   10   34 1
  24   11   22 1
  25   12   13 2
  26   12   14 1
  27   14   35 1
  28   15   16 1
  29   15   36 1
  30   15   37 1
  31   16   17 ar
  32   16   18 ar
  33   17   21 ar
  34   17   38 1
  35   18   19 ar
  36   18   39 1
  37   19   20 ar
  38   19   40 1
  39   20   21 ar
  40   20   41 1
  41   21   42 1
  42   22   23 1
  43   22   24 1
  44   22   43 1

#	End of record

