#	Name: ASD01209090
#	Creating user name:	WinNT
#	Creation time:	15. 06. 2019 19:10

#	Modifying user name:	WinNT
#	Modification time:	15. 06. 2019 19:10

#	Program:	/corina/corina34_cracker 3.40 0067  02.08.2006

@<TRIPOS>MOLECULE
ASD01209090
  74   77    0    0    0
SMALL
NO_CHARGES


@<TRIPOS>ATOM
   1 N1            -0.1044     1.3781    -0.0536 N.am    
   2 C2            -0.0610    -0.0850     0.0064 C.3     
   3 C3             0.4637    -0.6260    -1.2986 C.2     
   4 N4             0.2253    -1.9075    -1.6414 N.am    
   5 O5             1.1004     0.0917    -2.0404 O.2     
   6 C6             0.8608    -0.5216     1.1469 C.3     
   7 C7             0.2839    -0.0427     2.4806 C.3     
   8 C8             0.6208    -2.3796    -2.8921 C.ar    
   9 C9             0.2796    -3.6686    -3.2910 C.ar    
  10 P10            3.0790    -5.7676    -8.0994 P.3     
  11 O11            3.8435    -4.7146    -8.8046 O.2     
  12 O12            1.7772    -6.1556    -8.9637 O.3     
  13 O13            4.0067    -7.0701    -7.9123 O.3     
  14 C14            1.8452    -6.5728   -10.3287 C.3     
  15 C15            0.4342    -6.8627   -10.8443 C.3     
  16 C16            4.6565    -7.7260    -9.0030 C.3     
  17 C17            5.4535    -8.9216    -8.4774 C.3     
  18 N18            0.6559    -4.1121    -4.4758 N.ar    
  19 C19            1.3560    -3.3333    -5.2831 C.ar    
  20 C20            1.6966    -2.0523    -4.8899 C.ar    
  21 N21            1.3185    -1.5995    -3.7069 N.ar    
  22 C22            1.7842    -3.8435    -6.6349 C.3     
  23 C23            2.5610    -5.1505    -6.4641 C.3     
  24 C24           -1.0384    -0.7627     2.7522 C.3     
  25 C25           -1.6153    -0.2838     4.0860 C.3     
  26 C26           -0.6253    -0.5940     5.2106 C.3     
  27 C27            0.6971     0.1261     4.9389 C.3     
  28 C28            1.2739    -0.3528     3.6052 C.3     
  29 C29            0.9630     2.1898    -0.1465 C.2     
  30 C30            0.5316     3.6003    -0.1831 C.ar    
  31 C31           -0.8632     3.6338    -0.1084 C.ar    
  32 C32           -1.3205     2.1987    -0.0287 C.3     
  33 O33            2.1185     1.8154    -0.1933 O.2     
  34 C34            1.2414     4.7987    -0.2734 C.ar    
  35 C35            0.5618     5.9995    -0.2879 C.ar    
  36 C36           -0.8194     6.0212    -0.2130 C.ar    
  37 C37           -1.5308     4.8361    -0.1236 C.ar    
  38 H38           -1.0649    -0.4714     0.1825 H       
  39 H39           -0.2215    -2.5012    -1.0180 H       
  40 H40            0.9396    -1.6087     1.1545 H       
  41 H41            1.8496    -0.0866     1.0016 H       
  42 H42            0.1098     1.0324     2.4361 H       
  43 H43           -0.2919    -4.3052    -2.6319 H       
  44 H44            2.2959    -5.7820   -10.9283 H       
  45 H45            2.4518    -7.4755   -10.4029 H       
  46 H46            0.4861    -7.1810   -11.8855 H       
  47 H47           -0.0164    -7.6536   -10.2446 H       
  48 H48           -0.1723    -5.9601   -10.7701 H       
  49 H49            3.9086    -8.0730    -9.7159 H       
  50 H50            5.3323    -7.0275    -9.4964 H       
  51 H51            4.7777    -9.6201    -7.9839 H       
  52 H52            5.9492    -9.4219    -9.3093 H       
  53 H53            6.2014    -8.5745    -7.7644 H       
  54 H54            2.2685    -1.4191    -5.5520 H       
  55 H55            0.9034    -4.0222    -7.2515 H       
  56 H56            2.4214    -3.1025    -7.1177 H       
  57 H57            1.9238    -5.8914    -5.9813 H       
  58 H58            3.4419    -4.9718    -5.8475 H       
  59 H59           -1.7437    -0.5418     1.9511 H       
  60 H60           -0.8643    -1.8378     2.7968 H       
  61 H61           -1.7894     0.7913     4.0414 H       
  62 H62           -2.5573    -0.7968     4.2795 H       
  63 H63           -1.0362    -0.2528     6.1607 H       
  64 H64           -0.4511    -1.6690     5.2551 H       
  65 H65            0.5229     1.2012     4.8944 H       
  66 H66            1.4024    -0.0949     5.7401 H       
  67 H67            1.4481    -1.4279     3.6497 H       
  68 H68            2.2160     0.1602     3.4116 H       
  69 H69           -1.9577     1.9608    -0.8804 H       
  70 H70           -1.8606     2.0289     0.9028 H       
  71 H71            2.3198     4.7862    -0.3314 H       
  72 H72            1.1108     6.9269    -0.3577 H       
  73 H73           -1.3445     6.9649    -0.2241 H       
  74 H74           -2.6091     4.8561    -0.0656 H       
@<TRIPOS>BOND
   1    1    2 1
   2    1   29 am
   3    1   32 1
   4    2    3 1
   5    2    6 1
   6    2   38 1
   7    3    4 am
   8    3    5 2
   9    4    8 1
  10    4   39 1
  11    6    7 1
  12    6   40 1
  13    6   41 1
  14    7   24 1
  15    7   28 1
  16    7   42 1
  17    8    9 ar
  18    8   21 ar
  19    9   18 ar
  20    9   43 1
  21   10   11 2
  22   10   12 1
  23   10   13 1
  24   10   23 1
  25   12   14 1
  26   13   16 1
  27   14   15 1
  28   14   44 1
  29   14   45 1
  30   15   46 1
  31   15   47 1
  32   15   48 1
  33   16   17 1
  34   16   49 1
  35   16   50 1
  36   17   51 1
  37   17   52 1
  38   17   53 1
  39   18   19 ar
  40   19   20 ar
  41   19   22 1
  42   20   21 ar
  43   20   54 1
  44   22   23 1
  45   22   55 1
  46   22   56 1
  47   23   57 1
  48   23   58 1
  49   24   25 1
  50   24   59 1
  51   24   60 1
  52   25   26 1
  53   25   61 1
  54   25   62 1
  55   26   27 1
  56   26   63 1
  57   26   64 1
  58   27   28 1
  59   27   65 1
  60   27   66 1
  61   28   67 1
  62   28   68 1
  63   29   30 1
  64   29   33 2
  65   30   31 ar
  66   30   34 ar
  67   31   32 1
  68   31   37 ar
  69   32   69 1
  70   32   70 1
  71   34   35 ar
  72   34   71 1
  73   35   36 ar
  74   35   72 1
  75   36   37 ar
  76   36   73 1
  77   37   74 1

#	End of record

