#	Name: ASD08178024
#	Creating user name:	WinNT
#	Creation time:	15. 06. 2019 21:18

#	Modifying user name:	WinNT
#	Modification time:	15. 06. 2019 21:18

#	Program:	/corina/corina34_cracker 3.40 0067  02.08.2006

@<TRIPOS>MOLECULE
ASD08178024
  47   49    0    0    0
SMALL
NO_CHARGES


@<TRIPOS>ATOM
   1 N1            -0.0155     1.2947     0.0092 N.2     
   2 C2             0.0021    -0.0041     0.0020 C.2     
   3 N3            -1.1168    -0.8300     0.0083 N.am    
   4 N4             1.0945     1.8960     0.0018 N.2     
   5 C5             2.1557     1.1534    -0.0123 C.2     
   6 S6             1.6320    -0.5310    -0.0164 S.3     
   7 C7             3.5816     1.6410    -0.0233 C.3     
   8 C8             4.0782     1.7976     1.4154 C.3     
   9 S9             5.7946     2.3845     1.4021 S.3     
  10 C10            6.1978     2.5063     3.1665 C.3     
  11 C11            7.6379     2.9971     3.3279 C.3     
  12 C12            7.9729     3.0983     4.7937 C.2     
  13 N13            8.4807     2.1604     5.5251 N.2     
  14 N14            8.7006     2.4123     6.7409 N.2     
  15 C15            8.3999     3.6028     7.1750 C.2     
  16 S16            7.7489     4.5201     5.8149 S.3     
  17 N17            8.5666     4.0679     8.4711 N.pl3   
  18 C18           -2.3521    -0.2911     0.0235 C.2     
  19 O19           -2.4879     0.9140     0.0317 O.2     
  20 C20           -3.5646    -1.1861     0.0302 C.3     
  21 C21           -3.5343    -2.0764     1.2742 C.3     
  22 C22           -4.8124    -0.3413     0.0473 C.ar    
  23 C23           -5.7304    -0.4436    -0.9811 C.ar    
  24 C24           -6.8750     0.3313    -0.9655 C.ar    
  25 C25           -7.1018     1.2082     0.0788 C.ar    
  26 C26           -6.1842     1.3098     1.1076 C.ar    
  27 C27           -5.0417     0.5318     1.0942 C.ar    
  28 H28           -1.0082    -1.7939     0.0017 H       
  29 H29            4.2083     0.9194    -0.5474 H       
  30 H30            3.6326     2.6036    -0.5321 H       
  31 H31            3.4515     2.5192     1.9395 H       
  32 H32            4.0272     0.8350     1.9242 H       
  33 H33            5.5181     3.2102     3.6468 H       
  34 H34            6.0938     1.5259     3.6315 H       
  35 H35            8.3176     2.2933     2.8476 H       
  36 H36            7.7419     3.9775     2.8629 H       
  37 H37            8.9394     3.4853     9.1512 H       
  38 H38            8.3104     4.9756     8.6973 H       
  39 H39           -3.5605    -1.8102    -0.8634 H       
  40 H40           -3.5384    -1.4523     2.1678 H       
  41 H41           -4.4113    -2.7237     1.2791 H       
  42 H42           -2.6318    -2.6874     1.2618 H       
  43 H43           -5.5533    -1.1287    -1.7970 H       
  44 H44           -7.5919     0.2519    -1.7693 H       
  45 H45           -7.9957     1.8142     0.0906 H       
  46 H46           -6.3612     1.9952     1.9233 H       
  47 H47           -4.3248     0.6111     1.8980 H       
@<TRIPOS>BOND
   1    1    2 2
   2    1    4 1
   3    2    3 1
   4    2    6 1
   5    3   18 am
   6    3   28 1
   7    4    5 2
   8    5    6 1
   9    5    7 1
  10    7    8 1
  11    7   29 1
  12    7   30 1
  13    8    9 1
  14    8   31 1
  15    8   32 1
  16    9   10 1
  17   10   11 1
  18   10   33 1
  19   10   34 1
  20   11   12 1
  21   11   35 1
  22   11   36 1
  23   12   13 2
  24   12   16 1
  25   13   14 1
  26   14   15 2
  27   15   16 1
  28   15   17 1
  29   17   37 1
  30   17   38 1
  31   18   19 2
  32   18   20 1
  33   20   21 1
  34   20   22 1
  35   20   39 1
  36   21   40 1
  37   21   41 1
  38   21   42 1
  39   22   23 ar
  40   22   27 ar
  41   23   24 ar
  42   23   43 1
  43   24   25 ar
  44   24   44 1
  45   25   26 ar
  46   25   45 1
  47   26   27 ar
  48   26   46 1
  49   27   47 1

#	End of record

