#	Name: ASD03091500
#	Creating user name:	WinNT
#	Creation time:	15. 06. 2019 20:30

#	Modifying user name:	WinNT
#	Modification time:	15. 06. 2019 20:30

#	Program:	/corina/corina34_cracker 3.40 0067  02.08.2006

@<TRIPOS>MOLECULE
ASD03091500
  40   42    0    0    0
SMALL
NO_CHARGES


@<TRIPOS>ATOM
   1 Cl1            0.0000     0.0000     0.0000 Cl      
   2 H2             0.0000     1.3700     0.0000 H       
   3 C3            14.5434    10.3582     7.3406 C.ar    
   4 C4            14.5624     8.9582     7.3329 C.ar    
   5 C5            15.7850     8.2784     7.3176 C.ar    
   6 C6            16.9659     8.9807     7.3100 C.ar    
   7 C7            16.9524    10.3703     7.3176 C.ar    
   8 C8            15.7768    11.0525     7.3325 C.ar    
   9 S9            12.9126     8.3457     7.3459 S.3     
  10 C10           12.2548     9.9724     7.3612 C.2     
  11 C11           13.2385    10.8799     7.3616 C.2     
  12 C12           10.8223    10.2938     7.3764 C.2     
  13 O13           10.4594    11.4551     7.3859 O.2     
  14 N14            9.9092     9.3025     7.3799 N.am    
  15 N15            6.9395     8.8955     5.6362 N.3     
  16 C16            7.9931     9.8656     5.9635 C.3     
  17 C17            8.4798     9.6231     7.3951 C.3     
  18 C18            7.6957     8.4478     7.9921 C.3     
  19 C19            7.9249     7.2107     7.1146 C.3     
  20 C20            7.4530     7.5198     5.6911 C.3     
  21 C21            5.7779     9.0590     6.5212 C.3     
  22 C22            6.2016     8.7943     7.9687 C.3     
  23 Cl23          12.9237    12.5870     7.3750 Cl      
  24 H24           15.8007     7.1985     7.3120 H       
  25 H25           17.9072     8.4514     7.2986 H       
  26 H26           17.8856    10.9138     7.3120 H       
  27 H27           15.7839    12.1325     7.3379 H       
  28 H28           10.1985     8.3766     7.3724 H       
  29 H29            8.8261     9.7453     5.2709 H       
  30 H30            7.5946    10.8768     5.8813 H       
  31 H31            8.3105    10.5174     7.9949 H       
  32 H32            8.0311     8.2523     9.0106 H       
  33 H33            8.9864     6.9636     7.1019 H       
  34 H34            7.3571     6.3700     7.5132 H       
  35 H35            6.6613     6.8247     5.4114 H       
  36 H36            8.2895     7.4160     5.0000 H       
  37 H37            5.3949    10.0758     6.4345 H       
  38 H38            5.0000     8.3513     6.2348 H       
  39 H39            5.6269     7.9599     8.3707 H       
  40 H40            6.0240     9.6858     8.5701 H       
@<TRIPOS>BOND
   1    1    2 1
   2    3    4 ar
   3    3    8 ar
   4    3   11 1
   5    4    5 ar
   6    4    9 1
   7    5    6 ar
   8    5   24 1
   9    6    7 ar
  10    6   25 1
  11    7    8 ar
  12    7   26 1
  13    8   27 1
  14    9   10 1
  15   10   11 2
  16   10   12 1
  17   11   23 1
  18   12   13 2
  19   12   14 am
  20   14   17 1
  21   14   28 1
  22   15   16 1
  23   15   20 1
  24   15   21 1
  25   16   17 1
  26   16   29 1
  27   16   30 1
  28   17   18 1
  29   17   31 1
  30   18   19 1
  31   18   22 1
  32   18   32 1
  33   19   20 1
  34   19   33 1
  35   19   34 1
  36   20   35 1
  37   20   36 1
  38   21   22 1
  39   21   37 1
  40   21   38 1
  41   22   39 1
  42   22   40 1

#	End of record

