#	Name: ASD03082412
#	Creating user name:	WinNT
#	Creation time:	15. 06. 2019 20:27

#	Modifying user name:	WinNT
#	Modification time:	15. 06. 2019 20:27

#	Program:	/corina/corina34_cracker 3.40 0067  02.08.2006

@<TRIPOS>MOLECULE
ASD03082412
  50   53    0    0    0
SMALL
NO_CHARGES


@<TRIPOS>ATOM
   1 C1             0.8877     3.2554    -0.1896 C.ar    
   2 C2             1.9834     4.0801     0.0296 C.ar    
   3 C3             1.8179     5.4509     0.0712 C.ar    
   4 C4             0.5630     6.0041    -0.1051 C.ar    
   5 C5            -0.5324     5.1871    -0.3238 C.ar    
   6 Cl6           -2.1059     5.8862    -0.5451 Cl      
   7 N7             1.0526     1.8672    -0.2316 N.pl3   
   8 C8             2.3377     1.3151    -0.2238 C.2     
   9 C9             2.6461    -0.0539    -0.1444 C.2     
  10 N10            3.4639     1.9855    -0.2952 N.2     
  11 N11            4.5223     1.0685    -0.2583 N.pl3   
  12 C12            3.9919    -0.1789    -0.1655 C.2     
  13 C13            5.8838     1.3815    -0.3115 C.ar    
  14 C14            6.7770     0.5701    -1.0082 C.ar    
  15 C15            6.3819     2.5165     0.3261 C.ar    
  16 C16            7.7319     2.7906     0.2494 C.ar    
  17 N17            8.5470     1.9944    -0.4163 N.ar    
  18 C18            8.1132     0.9140    -1.0371 C.ar    
  19 C19            8.2825     4.0149     0.9341 C.3     
  20 H20            8.8133     0.2885    -1.5710 H       
  21 C21            4.7655    -1.4705    -0.0978 C.3     
  22 C22            4.8487    -2.0790    -1.4739 C.2     
  23 C23           -0.3747     3.8127    -0.3614 C.ar    
  24 N24            5.4986    -3.2455    -1.6568 N.am    
  25 C25            5.5794    -3.8370    -2.9946 C.3     
  26 O26            4.3308    -1.5190    -2.4169 O.2     
  27 C27            6.7896    -4.7667    -3.1850 C.3     
  28 C28            5.8530    -5.6940    -3.9773 C.3     
  29 C29            4.6945    -5.0821    -3.1721 C.3     
  30 F30           -1.4435     3.0145    -0.5753 F       
  31 H31            2.9643     3.6499     0.1678 H       
  32 H32            2.6703     6.0917     0.2420 H       
  33 H33            0.4373     7.0762    -0.0716 H       
  34 H34            0.2758     1.2874    -0.2662 H       
  35 H35            1.9337    -0.8629    -0.0777 H       
  36 H36            6.4285    -0.3159    -1.5181 H       
  37 H37            5.7202     3.1724     0.8722 H       
  38 H38            8.5752     3.7608     1.9528 H       
  39 H39            9.1520     4.3776     0.3859 H       
  40 H40            7.5184     4.7919     0.9588 H       
  41 H41            5.7711    -1.2727     0.2734 H       
  42 H42            4.2592    -2.1623     0.5754 H       
  43 H43            5.9128    -3.6933    -0.9026 H       
  44 H44            5.4647    -3.1011    -3.7904 H       
  45 H45            7.5850    -4.3299    -3.7888 H       
  46 H46            7.1541    -5.2047    -2.2558 H       
  47 H47            5.8123    -5.4667    -5.0426 H       
  48 H48            6.0137    -6.7530    -3.7753 H       
  49 H49            4.4863    -5.6064    -2.2394 H       
  50 H50            3.7986    -4.9000    -3.7656 H       
@<TRIPOS>BOND
   1    1    2 ar
   2    1    7 1
   3    1   23 ar
   4    2    3 ar
   5    2   31 1
   6    3    4 ar
   7    3   32 1
   8    4    5 ar
   9    4   33 1
  10    5   23 ar
  11    5    6 1
  12    7    8 1
  13    7   34 1
  14    8    9 1
  15    8   10 2
  16    9   12 2
  17    9   35 1
  18   10   11 1
  19   11   12 1
  20   11   13 1
  21   12   21 1
  22   13   14 ar
  23   13   15 ar
  24   14   18 ar
  25   14   36 1
  26   15   16 ar
  27   15   37 1
  28   16   17 ar
  29   16   19 1
  30   17   18 ar
  31   18   20 1
  32   19   38 1
  33   19   39 1
  34   19   40 1
  35   21   22 1
  36   21   41 1
  37   21   42 1
  38   22   24 am
  39   22   26 2
  40   23   30 1
  41   24   25 1
  42   24   43 1
  43   25   27 1
  44   25   29 1
  45   25   44 1
  46   27   28 1
  47   27   45 1
  48   27   46 1
  49   28   29 1
  50   28   47 1
  51   28   48 1
  52   29   49 1
  53   29   50 1

#	End of record

