#	Name: ASD01028226
#	Creating user name:	WinNT
#	Creation time:	15. 06. 2019 18:56

#	Modifying user name:	WinNT
#	Modification time:	15. 06. 2019 18:56

#	Program:	/corina/corina34_cracker 3.40 0067  02.08.2006

@<TRIPOS>MOLECULE
ASD01028226
  38   41    0    0    0
SMALL
NO_CHARGES


@<TRIPOS>ATOM
   1 C1            -0.0165     1.3658     0.0096 C.ar    
   2 C2             0.0021    -0.0041     0.0020 C.ar    
   3 C3             1.1871     2.0786     0.0019 C.ar    
   4 N4             2.3453     1.4655    -0.0129 N.ar    
   5 C5             2.4265     0.1343    -0.0208 C.ar    
   6 C6             1.2509    -0.6527    -0.0134 C.ar    
   7 C7             3.6823    -0.5215    -0.0362 C.ar    
   8 C8             3.6925    -1.9066    -0.0433 C.ar    
   9 C9             2.4925    -2.6050    -0.0352 C.ar    
  10 N10            1.3341    -1.9873    -0.0204 N.ar    
  11 N11            4.8661     0.2018    -0.0444 N.pl3   
  12 C12            6.1526    -0.4989    -0.0603 C.3     
  13 C13            7.2733     0.5086    -0.0666 C.2     
  14 N14            7.8770     1.0365     1.0207 N.pl3   
  15 C15            8.8321     1.9015     0.5416 C.2     
  16 N16            8.7618     1.8562    -0.7787 N.2     
  17 N17            7.8416     1.0261    -1.1271 N.2     
  18 N18            7.7110     0.8687     2.3969 N.2     
  19 C19            8.4648     1.5347     3.2458 C.2     
  20 C20            9.4543     2.4310     2.7837 C.2     
  21 C21            9.6386     2.6135     1.4501 C.2     
  22 O22           -1.2013     2.0306     0.0188 O.3     
  23 C23           -1.1440     3.4584     0.0263 C.3     
  24 C24            8.2796     1.3492     4.6536 C.1     
  25 C25            8.1277     1.1970     5.8078 C.1     
  26 H26           -0.9171    -0.5710     0.0081 H       
  27 H27            1.1613     3.1582     0.0079 H       
  28 H28            4.6307    -2.4414    -0.0554 H       
  29 H29            2.5125    -3.6848    -0.0412 H       
  30 H30            4.8421     1.1715    -0.0396 H       
  31 H31            6.2346    -1.1281     0.8259 H       
  32 H32            6.2171    -1.1197    -0.9539 H       
  33 H33           10.0652     2.9715     3.4915 H       
  34 H34           10.3934     3.2975     1.0912 H       
  35 H35           -0.6118     3.7960     0.9156 H       
  36 H36           -0.6203     3.8057    -0.8643 H       
  37 H37           -2.1563     3.8626     0.0332 H       
  38 H38            7.9919     1.0609     6.8400 H       
@<TRIPOS>BOND
   1    1    2 ar
   2    1    3 ar
   3    1   22 1
   4    2    6 ar
   5    2   26 1
   6    3    4 ar
   7    3   27 1
   8    4    5 ar
   9    5    6 ar
  10    5    7 ar
  11    6   10 ar
  12    7    8 ar
  13    7   11 1
  14    8    9 ar
  15    8   28 1
  16    9   10 ar
  17    9   29 1
  18   11   12 1
  19   11   30 1
  20   12   13 1
  21   12   31 1
  22   12   32 1
  23   13   14 1
  24   13   17 2
  25   14   15 1
  26   14   18 1
  27   15   16 2
  28   15   21 1
  29   16   17 1
  30   18   19 2
  31   19   20 1
  32   19   24 1
  33   20   21 2
  34   20   33 1
  35   21   34 1
  36   22   23 1
  37   23   35 1
  38   23   36 1
  39   23   37 1
  40   24   25 3
  41   25   38 1

#	End of record

