#	Name: ASD04910329
#	Creating user name:	WinNT
#	Creation time:	15. 06. 2019 20:55

#	Modifying user name:	WinNT
#	Modification time:	15. 06. 2019 20:55

#	Program:	/corina/corina34_cracker 3.40 0067  02.08.2006

@<TRIPOS>MOLECULE
ASD04910329
  58   60    0    0    0
SMALL
NO_CHARGES


@<TRIPOS>ATOM
   1 C1             0.1219     1.2153    -0.2921 C.ar    
   2 C2             0.3267    -0.1526    -0.3275 C.ar    
   3 C3            -0.7273    -1.0044    -0.5858 C.ar    
   4 C4            -2.0024    -0.4836    -0.8113 C.ar    
   5 C5            -2.2022     0.8973    -0.7738 C.ar    
   6 C6            -1.1407     1.7378    -0.5092 C.ar    
   7 C7             1.2780     2.1399    -0.0099 C.3     
   8 O8             1.1202     3.3437    -0.7635 O.3     
   9 C9             2.2420     3.8784    -1.3145 C.ar    
  10 C10            1.3115     2.4734     1.4830 C.3     
  11 C11            3.4830     3.3234    -1.0374 C.ar    
  12 C12            2.1450     4.9753    -2.1585 C.ar    
  13 C13            3.2839     5.5182    -2.7191 C.ar    
  14 C14            4.5265     4.9664    -2.4379 C.ar    
  15 C15            4.6226     3.8661    -1.5968 C.ar    
  16 N16            5.6841     5.5174    -3.0076 N.pl3   
  17 N17            5.7336     6.6182    -3.8727 N.2     
  18 C18            6.9850     6.8325    -4.1910 C.2     
  19 C19            7.7723     5.8767    -3.5402 C.2     
  20 C20            6.9499     5.0836    -2.8145 C.2     
  21 C21           -3.1364    -1.3906    -1.0892 C.2     
  22 N22           -4.3665    -0.8845    -1.3066 N.am    
  23 O23           -2.9594    -2.5927    -1.1217 O.2     
  24 C24           -5.4902    -1.7832    -1.5819 C.3     
  25 C25           -6.7628    -0.9597    -1.7899 C.3     
  26 C26           -7.9187    -1.8842    -2.0732 C.2     
  27 O27           -7.7427    -3.0792    -2.1054 O.2     
  28 O28           -9.1438    -1.3802    -2.2896 O.3     
  29 C29            2.5552     3.3097     1.7909 C.3     
  30 C30            2.5887     3.6433     3.2837 C.3     
  31 F31            9.7729     6.7555    -4.4669 F       
  32 F32            9.8257     5.8983    -2.3499 F       
  33 C33            9.2719     5.7554    -3.6266 C.3     
  34 F34            9.6092     4.4999    -4.1434 F       
  35 H35            1.3138    -0.5543    -0.1528 H       
  36 H36           -0.5660    -2.0720    -0.6138 H       
  37 H37           -3.1865     1.3066    -0.9475 H       
  38 H38           -1.2940     2.8065    -0.4799 H       
  39 H39            2.2106     1.6527    -0.2943 H       
  40 H40            0.4185     3.0389     1.7491 H       
  41 H41            1.3424     1.5499     2.0610 H       
  42 H42            3.5576     2.4669    -0.3837 H       
  43 H43            1.1783     5.4045    -2.3772 H       
  44 H44            3.2082     6.3716    -3.3766 H       
  45 H45            5.5891     3.4367    -1.3775 H       
  46 H46            7.3473     7.6125    -4.8442 H       
  47 H47            7.2502     4.2495    -2.1977 H       
  48 H48           -4.5078     0.0748    -1.2807 H       
  49 H49           -5.2807    -2.3617    -2.4817 H       
  50 H50           -5.6291    -2.4601    -0.7389 H       
  51 H51           -6.9723    -0.3812    -0.8902 H       
  52 H52           -6.6239    -0.2829    -2.6329 H       
  53 H53           -9.8535    -2.0125    -2.4672 H       
  54 H54            3.4483     2.7443     1.5248 H       
  55 H55            2.5243     4.2333     1.2128 H       
  56 H56            1.6957     4.2087     3.5498 H       
  57 H57            2.6197     2.7197     3.8617 H       
  58 H58            3.4748     4.2390     3.5031 H       
@<TRIPOS>BOND
   1    1    2 ar
   2    1    7 1
   3    1    6 ar
   4    2    3 ar
   5    2   35 1
   6    3    4 ar
   7    3   36 1
   8    4    5 ar
   9    4   21 1
  10    5    6 ar
  11    5   37 1
  12    6   38 1
  13    7    8 1
  14    7   10 1
  15    7   39 1
  16    8    9 1
  17    9   11 ar
  18    9   12 ar
  19   10   29 1
  20   10   40 1
  21   10   41 1
  22   11   15 ar
  23   11   42 1
  24   12   13 ar
  25   12   43 1
  26   13   14 ar
  27   13   44 1
  28   14   15 ar
  29   14   16 1
  30   15   45 1
  31   16   17 1
  32   16   20 1
  33   17   18 2
  34   18   19 1
  35   18   46 1
  36   19   20 2
  37   19   33 1
  38   20   47 1
  39   21   22 am
  40   21   23 2
  41   22   24 1
  42   22   48 1
  43   24   25 1
  44   24   49 1
  45   24   50 1
  46   25   26 1
  47   25   51 1
  48   25   52 1
  49   26   27 2
  50   26   28 1
  51   28   53 1
  52   29   30 1
  53   29   54 1
  54   29   55 1
  55   30   56 1
  56   30   57 1
  57   30   58 1
  58   31   33 1
  59   32   33 1
  60   33   34 1

#	End of record

