#	Name: ASD03240424
#	Creating user name:	WinNT
#	Creation time:	15. 06. 2019 20:34

#	Modifying user name:	WinNT
#	Modification time:	15. 06. 2019 20:34

#	Program:	/corina/corina34_cracker 3.40 0067  02.08.2006

@<TRIPOS>MOLECULE
ASD03240424
  46   49    0    0    0
SMALL
NO_CHARGES


@<TRIPOS>ATOM
   1 C1             0.1649     1.1473    -0.2577 C.ar    
   2 C2             0.3381    -0.1899    -0.5626 C.ar    
   3 C3             2.9132     1.5918     1.7064 C.ar    
   4 C4             1.7850     2.2393     1.2385 C.ar    
   5 C5             1.3575     2.0664    -0.1962 C.3     
   6 C6             3.3053     1.7505     3.0224 C.ar    
   7 C7             2.5693     2.5565     3.8706 C.ar    
   8 C8             1.4409     3.2036     3.4028 C.ar    
   9 C9             1.0487     3.0450     2.0868 C.ar    
  10 C10            2.9963     2.7287     5.3056 C.3     
  11 C11           -0.7553    -1.0334    -0.6191 C.ar    
  12 C12           -2.0234    -0.5392    -0.3706 C.ar    
  13 C13           -2.1962     0.7991    -0.0656 C.ar    
  14 C14           -1.1026     1.6428    -0.0149 C.ar    
  15 Cl15          -3.3974    -1.5979    -0.4420 Cl      
  16 O16            2.4331     1.5021    -0.9490 O.3     
  17 C17            0.9828     3.4282    -0.7843 C.3     
  18 N18            2.1340     4.3303    -0.6996 N.am    
  19 C19            3.1128     4.4038    -1.6195 C.2     
  20 C20            2.3485     5.1983     0.3056 C.2     
  21 C21            3.6056     5.9281     0.0374 C.ar    
  22 C22            4.0912     5.4233    -1.1857 C.ar    
  23 C23            4.3120     6.9164     0.7041 C.ar    
  24 C24            5.4939     7.3991     0.1644 C.ar    
  25 C25            5.9720     6.9016    -1.0333 C.ar    
  26 C26            5.2734     5.9166    -1.7140 C.ar    
  27 O27            3.1811     3.7431    -2.6362 O.2     
  28 O28            1.6296     5.3558     1.2717 O.2     
  29 H29            1.3281    -0.5755    -0.7569 H       
  30 H30            3.4857     0.9585     1.0449 H       
  31 H31            4.1866     1.2443     3.3880 H       
  32 H32            0.8654     3.8328     4.0657 H       
  33 H33            0.1673     3.5509     1.7213 H       
  34 H34            3.6749     3.5781     5.3833 H       
  35 H35            2.1186     2.9068     5.9269 H       
  36 H36            3.5041     1.8257     5.6444 H       
  37 H37           -0.6199    -2.0780    -0.8576 H       
  38 H38           -3.1859     1.1855     0.1285 H       
  39 H39           -1.2373     2.6876     0.2232 H       
  40 H40            3.2356     2.0416    -0.9534 H       
  41 H41            0.6930     3.3060    -1.8280 H       
  42 H42            0.1490     3.8495    -0.2228 H       
  43 H43            3.9430     7.3091     1.6400 H       
  44 H44            6.0450     8.1696     0.6831 H       
  45 H45            6.8942     7.2858    -1.4437 H       
  46 H46            5.6517     5.5316    -2.6494 H       
@<TRIPOS>BOND
   1    1    2 ar
   2    1    5 1
   3    1   14 ar
   4    2   11 ar
   5    2   29 1
   6    3    4 ar
   7    3    6 ar
   8    3   30 1
   9    4    5 1
  10    4    9 ar
  11    5   17 1
  12    5   16 1
  13    6    7 ar
  14    6   31 1
  15    7    8 ar
  16    7   10 1
  17    8    9 ar
  18    8   32 1
  19    9   33 1
  20   10   34 1
  21   10   35 1
  22   10   36 1
  23   11   12 ar
  24   11   37 1
  25   12   13 ar
  26   12   15 1
  27   13   14 ar
  28   13   38 1
  29   14   39 1
  30   16   40 1
  31   17   18 1
  32   17   41 1
  33   17   42 1
  34   18   19 am
  35   18   20 am
  36   19   27 2
  37   19   22 1
  38   20   21 1
  39   20   28 2
  40   21   22 ar
  41   21   23 ar
  42   22   26 ar
  43   23   24 ar
  44   23   43 1
  45   24   25 ar
  46   24   44 1
  47   25   26 ar
  48   25   45 1
  49   26   46 1

#	End of record

