#	Name: ASD05513044
#	Creating user name:	WinNT
#	Creation time:	15. 06. 2019 21:01

#	Modifying user name:	WinNT
#	Modification time:	15. 06. 2019 21:01

#	Program:	/corina/corina34_cracker 3.40 0067  02.08.2006

@<TRIPOS>MOLECULE
ASD05513044
  32   34    0    0    0
SMALL
NO_CHARGES


@<TRIPOS>ATOM
   1 C1            -0.0108     1.4058     0.4150 C.2     
   2 C2             0.0021    -0.0041     0.0020 C.2     
   3 C3             1.1832    -0.6673    -0.1155 C.2     
   4 C4             2.5227    -0.0874    -0.3457 C.ar    
   5 C5             3.4202    -1.1643    -0.3933 C.ar    
   6 N6             2.7249    -2.3553    -0.2089 N.am    
   7 C7             1.4106    -2.1346    -0.0339 C.2     
   8 C8             2.9809     1.2183    -0.5051 C.ar    
   9 C9             4.3256     1.4511    -0.7108 C.ar    
  10 C10            5.2145     0.3900    -0.7583 C.ar    
  11 C11            4.7704    -0.9084    -0.6010 C.ar    
  12 O12            0.5598    -2.9825     0.1489 O.2     
  13 O13            1.0190     1.9434     0.7753 O.2     
  14 C14           -1.2738     2.1725     0.3868 C.ar    
  15 C15           -2.4622     1.5687    -0.0304 C.ar    
  16 N16           -3.5872     2.2524    -0.0558 N.ar    
  17 C17           -3.6409     3.5199     0.3069 C.ar    
  18 C18           -2.5075     4.1904     0.7326 C.ar    
  19 C19           -1.3009     3.5164     0.7836 C.ar    
  20 C20            4.8273     2.8615    -0.8844 C.3     
  21 H21           -0.9266    -0.5137    -0.2082 H       
  22 H22            3.1371    -3.2333    -0.2028 H       
  23 H23            2.2868     2.0450    -0.4682 H       
  24 H24            6.2654     0.5797    -0.9196 H       
  25 H25            5.4740    -1.7268    -0.6401 H       
  26 H26           -2.4582     0.5326    -0.3350 H       
  27 H27           -4.5851     4.0430     0.2706 H       
  28 H28           -2.5655     5.2282     1.0260 H       
  29 H29           -0.4011     4.0151     1.1122 H       
  30 H30            5.0907     3.2759     0.0888 H       
  31 H31            5.7072     2.8575    -1.5278 H       
  32 H32            4.0470     3.4713    -1.3398 H       
@<TRIPOS>BOND
   1    1    2 1
   2    1   13 2
   3    1   14 1
   4    2    3 2
   5    2   21 1
   6    3    4 1
   7    3    7 1
   8    4    5 ar
   9    4    8 ar
  10    5    6 1
  11    5   11 ar
  12    6    7 am
  13    6   22 1
  14    7   12 2
  15    8    9 ar
  16    8   23 1
  17    9   10 ar
  18    9   20 1
  19   10   11 ar
  20   10   24 1
  21   11   25 1
  22   14   15 ar
  23   14   19 ar
  24   15   16 ar
  25   15   26 1
  26   16   17 ar
  27   17   18 ar
  28   17   27 1
  29   18   19 ar
  30   18   28 1
  31   19   29 1
  32   20   30 1
  33   20   31 1
  34   20   32 1

#	End of record

