#	Name: ASD07110015
#	Creating user name:	WinNT
#	Creation time:	15. 06. 2019 21:09

#	Modifying user name:	WinNT
#	Modification time:	15. 06. 2019 21:09

#	Program:	/corina/corina34_cracker 3.40 0067  02.08.2006

@<TRIPOS>MOLECULE
ASD07110015
 428  437    0    0    0
SMALL
NO_CHARGES


@<TRIPOS>ATOM
   1 C1            -0.3741    12.9034   -32.2218 C.2     
   2 O2            -0.0913    11.7387   -32.4069 O.2     
   3 N3            -1.9704    12.0490   -30.6011 N.3     
   4 C4            -1.4354    13.2707   -31.2169 C.3     
   5 C5             2.4847    12.9353   -33.2822 C.2     
   6 O6             2.4462    12.6294   -32.1093 O.2     
   7 N7             0.2646    13.8697   -32.9110 N.am    
   8 C8             1.3193    13.6536   -33.9122 C.3     
   9 C9             1.7674    15.0429   -34.4128 C.3     
  10 C10            1.3382    15.9840   -33.2563 C.3     
  11 C11            0.0170    15.3179   -32.7902 C.3     
  12 C12            5.9598    12.2437   -34.1813 C.2     
  13 O13            5.9139    12.9751   -35.1476 O.2     
  14 N14            3.5697    12.6329   -34.0223 N.am    
  15 C15            4.7027    11.9346   -33.4098 C.3     
  16 C16            4.4464    10.4264   -33.4353 C.3     
  17 O17            4.4099     9.9723   -34.7897 O.3     
  18 C18            9.3518    10.8920   -34.3548 C.2     
  19 O19            9.2435    10.1394   -33.4100 O.2     
  20 N20            7.1351    11.7072   -33.7975 N.am    
  21 C21            8.3571    12.0076   -34.5475 C.3     
  22 C22            8.9578    13.3198   -34.0394 C.3     
  23 C23            8.0150    14.4767   -34.3769 C.3     
  24 C24            8.5441    15.7663   -33.7462 C.3     
  25 C25            7.9384    14.6457   -35.8956 C.3     
  26 C26            9.3577    11.3172   -37.3743 C.2     
  27 O27            8.4092    10.6602   -37.0008 O.2     
  28 N28           10.3618    10.7307   -35.2325 N.am    
  29 C29           10.5509    11.4986   -36.4719 C.3     
  30 C30           11.8184    10.9511   -37.1613 C.3     
  31 C31           11.9544     9.5278   -36.5589 C.3     
  32 C32           11.4634     9.7592   -35.1056 C.3     
  33 C33            8.4266    10.2836   -40.1718 C.2     
  34 O34            9.3991     9.6111   -39.9020 O.2     
  35 N35            9.3446    11.8851   -38.5965 N.am    
  36 C36            8.2319    11.6251   -39.5132 C.3     
  37 C37            8.1872    12.7171   -40.5839 C.3     
  38 C38            7.8609    14.0396   -39.9391 C.2     
  39 C39            6.6402    14.5803   -39.7996 C.2     
  40 N40            6.7349    15.7888   -39.1650 N.pl3   
  41 C41            8.0524    16.0624   -38.8733 C.ar    
  42 C42            8.6940    17.1273   -38.2497 C.ar    
  43 C43           10.0638    17.1091   -38.1018 C.ar    
  44 C44           10.8121    16.0378   -38.5691 C.ar    
  45 C45           10.2023    14.9813   -39.1853 C.ar    
  46 C46            8.8150    14.9760   -39.3402 C.ar    
  47 C47            6.9832     8.5058   -43.0212 C.2     
  48 O48            6.0224     9.2248   -43.1967 O.2     
  49 N49            7.5200     9.8313   -41.0606 N.am    
  50 C50            7.7092     8.5273   -41.7008 C.3     
  51 C51            7.1515     7.4283   -40.7942 C.3     
  52 C52            7.9860     7.3379   -39.5426 C.ar    
  53 C53            7.6552     8.0982   -38.4362 C.ar    
  54 C54            8.4189     8.0175   -37.2878 C.ar    
  55 C55            9.5182     7.1723   -37.2452 C.ar    
  56 O56           10.2708     7.0908   -36.1166 O.3     
  57 C57            9.8477     6.4101   -38.3566 C.ar    
  58 C58            9.0777     6.4905   -39.5008 C.ar    
  59 C59            5.3306     6.9701   -45.0727 C.2     
  60 O60            4.9281     6.7834   -43.9440 O.2     
  61 N61            7.4016     7.6877   -44.0071 N.am    
  62 C62            6.7278     7.4876   -45.2984 C.3     
  63 C63            7.5510     6.4486   -46.0887 C.3     
  64 C64            8.3286     5.7005   -44.9737 C.3     
  65 C65            8.6142     6.8499   -43.9718 C.3     
  66 C66            2.4883     6.0100   -47.2344 C.2     
  67 O67            3.0788     6.2617   -48.2634 O.2     
  68 N68            4.5283     6.7147   -46.1251 N.am    
  69 C69            3.1700     6.2116   -45.9057 C.3     
  70 C70            0.0498     6.5191   -49.1701 C.2     
  71 O71            0.1699     7.5708   -48.5782 O.2     
  72 N72            1.2223     5.5499   -47.2793 N.am    
  73 C73            0.5973     5.2498   -48.5699 C.3     
  74 C74           -0.5424     4.2499   -48.3644 C.3     
  75 C75            0.0224     2.9336   -47.8961 C.2     
  76 O76            1.2235     2.7741   -47.8419 O.2     
  77 N77           -0.8070     1.9337   -47.5375 N.am    
  78 C78           -2.2297     7.3837   -51.8940 C.2     
  79 O79           -2.5544     6.2276   -52.0638 O.2     
  80 N80           -0.5732     6.4855   -50.3648 N.am    
  81 C81           -1.1054     7.7194   -50.9483 C.3     
  82 C82            0.0053     8.4425   -51.7127 C.3     
  83 C83            1.0895     8.8934   -50.7318 C.3     
  84 C84            2.1835     9.6056   -51.4848 C.2     
  85 O85            2.1039     9.7393   -52.6875 O.2     
  86 N86            3.2503    10.0939   -50.8215 N.am    
  87 C87           -4.1054     9.1377   -54.4956 C.2     
  88 O88           -3.7569    10.2677   -54.2262 O.2     
  89 N89           -2.8743     8.3683   -52.5510 N.am    
  90 C90           -3.9672     8.0419   -53.4703 C.3     
  91 C91           -5.2733     7.9116   -52.6841 C.3     
  92 C92           -5.5552    10.9918   -56.4343 C.2     
  93 O93           -6.0306    11.0497   -55.3201 O.2     
  94 N94           -4.6161     8.8620   -55.7120 N.am    
  95 C95           -4.7145     9.8067   -56.8342 C.3     
  96 C96           -5.3854     9.0586   -58.0054 C.3     
  97 C97           -6.1406     7.9050   -57.2939 C.3     
  98 C98           -5.1628     7.5614   -56.1396 C.3     
  99 C99           -7.2002    13.7648   -58.1570 C.2     
 100 O100          -6.8201    13.4266   -59.2579 O.2     
 101 N101          -5.7787    11.9873   -57.3149 N.am    
 102 C102          -6.5959    13.1393   -56.9262 C.3     
 103 C103          -5.7191    14.1681   -56.2094 C.3     
 104 C104          -5.2174    13.5792   -54.8894 C.3     
 105 C105          -4.5240    14.5253   -57.0955 C.3     
 106 C106          -9.3685    16.6023   -58.9381 C.2     
 107 O107          -9.2092    17.0973   -57.8424 O.2     
 108 N108          -8.1629    14.7000   -58.0342 N.am    
 109 C109          -8.8310    15.2245   -59.2278 C.3     
 110 C110          -9.9852    14.2978   -59.6150 C.3     
 111 C111          -9.4277    12.9346   -60.0294 C.3     
 112 C112         -10.5645    12.0217   -60.4107 C.2     
 113 O113         -11.7037    12.4206   -60.3566 O.2     
 114 O114         -10.3115    10.7656   -60.8104 O.3     
 115 C115         -11.8159    18.6625   -59.0093 C.2     
 116 O116         -12.3761    17.6118   -58.7785 O.2     
 117 N117         -10.0263    17.2843   -59.8965 N.am    
 118 C118         -10.4527    18.6644   -59.6518 C.3     
 119 C119         -10.5159    19.4217   -60.9797 C.3     
 120 C120          -9.1282    19.5448   -61.5542 C.2     
 121 O121          -8.1706    19.1673   -60.9128 O.2     
 122 N122          -8.9512    20.0745   -62.7809 N.am    
 123 C123         -14.4338    21.1302   -58.3612 C.2     
 124 O124         -13.8777    21.9775   -59.0274 O.2     
 125 N125         -12.4126    19.8283   -58.6911 N.am    
 126 C126         -13.7377    19.8265   -58.0665 C.3     
 127 C127         -13.5880    19.6590   -56.5531 C.3     
 128 C128         -12.9950    18.2819   -56.2485 C.3     
 129 C129         -12.8475    18.1169   -54.7579 C.2     
 130 O130         -13.1835    19.0127   -54.0124 O.2     
 131 N131         -12.3422    16.9740   -54.2530 N.am    
 132 C132         -17.3734    22.8991   -57.0991 C.2     
 133 O133         -17.5222    22.1151   -56.1858 O.2     
 134 N134         -15.6743    21.3546   -57.8845 N.am    
 135 C135         -16.3509    22.6220   -58.1710 C.3     
 136 C136         -17.0482    22.5321   -59.5298 C.3     
 137 C137         -15.9988    22.3753   -60.6322 C.3     
 138 C138         -16.6856    22.2867   -61.9706 C.2     
 139 O139         -17.8908    22.3431   -62.0362 O.2     
 140 O140         -15.9585    22.1450   -63.0900 O.3     
 141 C141         -20.1939    25.1840   -56.6667 C.2     
 142 O142         -20.1372    25.5608   -57.8181 O.2     
 143 N143         -18.1224    24.0181   -57.1554 N.am    
 144 C144         -19.1163    24.2875   -56.1134 C.3     
 145 C145         -18.4383    24.9770   -54.9278 C.3     
 146 C146         -17.4311    24.0190   -54.2885 C.3     
 147 C147         -16.7530    24.7085   -53.1029 C.3     
 148 N148         -15.7886    23.7912   -52.4908 N.pl3   
 149 C149         -15.0535    24.1935   -51.4009 C.2     
 150 N150         -15.2146    25.3911   -50.9122 N.2     
 151 N151         -14.1485    23.3327   -50.8264 N.pl3   
 152 C152         -22.9160    27.2002   -55.2926 C.2     
 153 O153         -22.5397    27.0317   -54.1520 O.2     
 154 N154         -21.2206    25.5670   -55.8821 N.am    
 155 C155         -22.2682    26.4385   -56.4200 C.3     
 156 C156         -23.3219    25.5889   -57.1332 C.3     
 157 C157         -22.7015    24.9231   -58.3344 C.ar    
 158 C158         -22.1165    23.6770   -58.2086 C.ar    
 159 C159         -21.5474    23.0662   -59.3104 C.ar    
 160 C160         -21.5637    23.7014   -60.5381 C.ar    
 161 C161         -22.1495    24.9471   -60.6641 C.ar    
 162 C162         -22.7224    25.5560   -59.5632 C.ar    
 163 C163         -25.5816    28.1362   -53.7904 C.2     
 164 O164         -25.8811    27.0233   -54.1682 O.2     
 165 N165         -23.9135    28.0687   -55.5517 N.am    
 166 C166         -24.4689    28.8894   -54.4728 C.3     
 167 C167         -25.0179    30.1935   -55.0549 C.3     
 168 C168         -23.8823    31.0116   -55.6137 C.2     
 169 O169         -22.7369    30.6437   -55.4599 O.2     
 170 N170         -24.1396    32.1520   -56.2843 N.am    
 171 C171         -28.6260    28.2985   -52.9921 C.2     
 172 O172         -28.5477    29.0029   -53.9762 O.2     
 173 N173         -26.2438    28.6992   -52.7604 N.am    
 174 C174         -27.3961    28.0149   -52.1687 C.3     
 175 C175         -27.6109    28.5197   -50.7405 C.3     
 176 C176         -26.4547    28.0878   -49.8758 C.2     
 177 O177         -25.5087    27.5127   -50.3711 O.2     
 178 N178         -26.4719    28.3405   -48.5520 N.am    
 179 C179         -32.2201    28.0764   -52.6295 C.2     
 180 O180         -32.1256    28.0126   -51.4221 O.2     
 181 N181         -29.8129    27.7694   -52.6348 N.am    
 182 C182         -30.9875    27.9617   -53.4889 C.3     
 183 C183         -31.1332    26.7663   -54.4326 C.3     
 184 C184         -31.1340    25.4709   -53.6184 C.3     
 185 C185         -32.4024    25.4056   -52.7653 C.3     
 186 C186         -29.9627    26.7487   -55.4178 C.3     
 187 C187         -35.8232    27.8627   -53.2086 C.2     
 188 O188         -35.6749    27.5846   -54.3797 O.2     
 189 N189         -33.4275    28.2498   -53.2027 N.am    
 190 C190         -34.6357    28.2690   -52.3744 C.3     
 191 C191         -34.8562    29.6804   -51.8265 C.3     
 192 C192         -33.7279    30.0393   -50.8942 C.2     
 193 C193         -32.9368    31.1249   -50.9904 C.2     
 194 N194         -32.0512    31.0632   -49.9484 N.pl3   
 195 C195         -32.3322    29.9412   -49.2514 C.2     
 196 N196         -33.3393    29.3366   -49.8199 N.2     
 197 C197         -39.4603    27.9932   -52.8660 C.2     
 198 O198         -39.3974    28.6696   -51.8613 O.2     
 199 N199         -37.0500    27.8085   -52.6531 N.am    
 200 C200         -38.2044    27.4136   -53.4641 C.3     
 201 C201         -38.3100    25.8875   -53.4919 C.3     
 202 C202         -37.0918    25.3050   -54.2112 C.3     
 203 C203         -37.1339    23.7777   -54.1304 C.3     
 204 C204         -37.1101    25.7387   -55.6783 C.3     
 205 C205         -43.0574    27.4804   -53.2675 C.2     
 206 O206         -42.8965    26.5050   -53.9699 O.2     
 207 N207         -40.6536    27.7600   -53.4476 N.am    
 208 C208         -41.8745    28.3235   -52.8662 C.3     
 209 C209         -42.0700    29.7525   -53.3767 C.3     
 210 C210         -40.9319    30.6373   -52.8643 C.3     
 211 C211         -41.1245    32.0449   -53.3671 C.2     
 212 O212         -42.0782    32.3138   -54.0665 O.2     
 213 N213         -40.2370    33.0048   -53.0396 N.am    
 214 C214         -45.9429    27.4357   -54.5865 C.2     
 215 O215         -45.3941    28.3441   -55.1641 O.2     
 216 N216         -44.2942    27.8105   -52.8457 N.am    
 217 C217         -45.4442    26.9909   -53.2358 C.3     
 218 C218         -46.5600    27.1527   -52.2015 C.3     
 219 C219         -46.1031    26.5945   -50.8783 C.2     
 220 C220         -46.0888    27.2536   -49.7040 C.2     
 221 N221         -45.6046    26.3817   -48.7664 N.pl3   
 222 C222         -45.3397    25.2194   -49.4009 C.2     
 223 N223         -45.6450    25.3525   -50.6627 N.2     
 224 O224         -46.9969    26.8227   -55.1480 O.3     
 225 H225          -1.2326    11.5010   -30.1848 H       
 226 H226          -2.6844    12.2688   -29.9229 H       
 227 H227          -1.0007    13.9062   -30.4453 H       
 228 H228          -2.2406    13.8074   -31.7185 H       
 229 H229           0.9272    13.0665   -34.7428 H       
 230 H230           2.8480    15.0722   -34.5530 H       
 231 H231           1.2505    15.3055   -35.3358 H       
 232 H232           2.0810    15.9866   -32.4586 H       
 233 H233           1.1564    16.9946   -33.6220 H       
 234 H234          -0.8093    15.6166   -33.4353 H       
 235 H235          -0.1952    15.5814   -31.7540 H       
 236 H236           3.6005    12.8775   -34.9604 H       
 237 H237           4.8189    12.2660   -32.3779 H       
 238 H238           5.2460     9.9130   -32.9014 H       
 239 H239           3.4921    10.2119   -32.9543 H       
 240 H240           4.2509     9.0230   -34.8821 H       
 241 H241           7.1718    11.1221   -33.0247 H       
 242 H242           8.1191    12.1032   -35.6069 H       
 243 H243           9.0919    13.2638   -32.9591 H       
 244 H244           9.9231    13.4866   -34.5172 H       
 245 H245           7.0210    14.2616   -33.9846 H       
 246 H246           9.5381    15.9814   -34.1385 H       
 247 H247           7.8725    16.5905   -33.9867 H       
 248 H248           8.5987    15.6459   -32.6643 H       
 249 H249           8.9410    14.7980   -36.2952 H       
 250 H250           7.5025    13.7505   -36.3392 H       
 251 H251           7.3171    15.5089   -36.1342 H       
 252 H252          10.6808    12.5551   -36.2372 H       
 253 H253          11.6790    10.9012   -38.2412 H       
 254 H254          12.6871    11.5603   -36.9113 H       
 255 H255          11.3135     8.8188   -37.0831 H       
 256 H256          12.9926     9.1961   -36.5705 H       
 257 H257          12.2649    10.1724   -34.4933 H       
 258 H258          11.0989     8.8263   -34.6757 H       
 259 H259          10.0720    12.4661   -38.8692 H       
 260 H260           7.2950    11.6238   -38.9562 H       
 261 H261           9.1572    12.7827   -41.0767 H       
 262 H262           7.4214    12.4731   -41.3201 H       
 263 H263           5.7196    14.1284   -40.1384 H       
 264 H264           5.9855    16.3668   -38.9524 H       
 265 H265           8.1205    17.9657   -37.8830 H       
 266 H266          10.5602    17.9371   -37.6175 H       
 267 H267          11.8850    16.0392   -38.4452 H       
 268 H268          10.7912    14.1513   -39.5468 H       
 269 H269           6.7422    10.3693   -41.2764 H       
 270 H270           8.7726     8.3555   -41.8680 H       
 271 H271           6.1214     7.6651   -40.5278 H       
 272 H272           7.1805     6.4739   -41.3200 H       
 273 H273           6.7994     8.7561   -38.4698 H       
 274 H274           8.1606     8.6122   -36.4241 H       
 275 H275           9.9740     6.4129   -35.4941 H       
 276 H276          10.7032     5.7516   -38.3261 H       
 277 H277           9.3312     5.8941   -40.3648 H       
 278 H278           6.6903     8.4289   -45.8467 H       
 279 H279           6.8945     5.7646   -46.6264 H       
 280 H280           8.2397     6.9427   -46.7740 H       
 281 H281           7.7110     4.9259   -44.5191 H       
 282 H282           9.2577     5.2810   -45.3595 H       
 283 H283           9.4829     7.4264   -44.2898 H       
 284 H284           8.7696     6.4495   -42.9700 H       
 285 H285           4.8503     6.8640   -47.0279 H       
 286 H286           2.6065     6.9331   -45.3140 H       
 287 H287           3.2160     5.2617   -45.3731 H       
 288 H288           0.7249     5.4175   -46.4571 H       
 289 H289           1.3401     4.8208   -49.2423 H       
 290 H290          -1.2337     4.6358   -47.6151 H       
 291 H291          -1.0718     4.1038   -49.3060 H       
 292 H292          -1.7676     2.0613   -47.5809 H       
 293 H293          -0.4434     1.0865   -47.2361 H       
 294 H294          -0.6693     5.6444   -50.8382 H       
 295 H295          -1.4795     8.3652   -50.1538 H       
 296 H296           0.4398     7.7659   -52.4486 H       
 297 H297          -0.4102     9.3130   -52.2203 H       
 298 H298           0.6550     9.5700   -49.9959 H       
 299 H299           1.5050     8.0229   -50.2242 H       
 300 H300           3.3140     9.9869   -49.8596 H       
 301 H301           3.9545    10.5523   -51.3062 H       
 302 H302          -2.6145     9.2929   -52.4152 H       
 303 H303          -3.7501     7.0994   -53.9729 H       
 304 H304          -6.1007     7.7585   -53.3769 H       
 305 H305          -5.2055     7.0612   -52.0055 H       
 306 H306          -5.4440     8.8221   -52.1097 H       
 307 H307          -3.7188    10.1404   -57.1263 H       
 308 H308          -6.0836     9.7107   -58.5302 H       
 309 H309          -4.6355     8.6636   -58.6908 H       
 310 H310          -7.1012     8.2464   -56.9081 H       
 311 H311          -6.2699     7.0527   -57.9609 H       
 312 H312          -4.3631     6.9128   -56.4972 H       
 313 H313          -5.6987     7.0864   -55.3178 H       
 314 H314          -5.3984    11.9410   -58.2061 H       
 315 H315          -7.3917    12.8112   -56.2574 H       
 316 H316          -6.3032    15.0660   -56.0080 H       
 317 H317          -4.6332    12.6813   -55.0909 H       
 318 H318          -4.5927    14.3121   -54.3788 H       
 319 H319          -6.0688    13.3247   -54.2582 H       
 320 H320          -3.9886    13.6156   -57.3674 H       
 321 H321          -4.8772    15.0227   -57.9987 H       
 322 H322          -3.8548    15.1919   -56.5515 H       
 323 H323          -8.4134    15.0258   -57.1556 H       
 324 H324          -8.1170    15.2785   -60.0497 H       
 325 H325         -10.6529    14.1734   -58.7625 H       
 326 H326         -10.5369    14.7332   -60.4481 H       
 327 H327          -8.7600    13.0590   -60.8819 H       
 328 H328          -8.8759    12.4992   -59.1962 H       
 329 H329         -11.0730    10.2177   -61.0448 H       
 330 H330         -10.2174    16.8615   -60.7483 H       
 331 H331          -9.7391    19.1530   -58.9884 H       
 332 H332         -11.1514    18.8777   -61.6784 H       
 333 H333         -10.9290    20.4162   -60.8114 H       
 334 H334          -9.7171    20.3764   -63.2939 H       
 335 H335          -8.0580    20.1538   -63.1507 H       
 336 H336         -11.9645    20.6686   -58.8757 H       
 337 H337         -14.3269    19.0014   -58.4668 H       
 338 H338         -12.9259    20.4334   -56.1656 H       
 339 H339         -14.5657    19.7465   -56.0793 H       
 340 H340         -13.6571    17.5075   -56.6360 H       
 341 H341         -12.0173    18.1944   -56.7223 H       
 342 H342         -12.0734    16.2576   -54.8492 H       
 343 H343         -12.2472    16.8679   -53.2936 H       
 344 H344         -16.1190    20.6770   -57.3516 H       
 345 H345         -15.6181    23.4287   -58.1913 H       
 346 H346         -17.7163    21.6709   -59.5391 H       
 347 H347         -17.6245    23.4409   -59.7034 H       
 348 H348         -15.3307    23.2365   -60.6229 H       
 349 H349         -15.4226    21.4665   -60.4586 H       
 350 H350         -16.4436    22.0927   -63.9249 H       
 351 H351         -18.0034    24.6452   -57.8858 H       
 352 H352         -19.5595    23.3482   -55.7825 H       
 353 H353         -17.9197    25.8706   -55.2752 H       
 354 H354         -19.1913    25.2572   -54.1912 H       
 355 H355         -17.9496    23.1254   -53.9411 H       
 356 H356         -16.6781    23.7388   -55.0251 H       
 357 H357         -16.2344    25.6021   -53.4503 H       
 358 H358         -17.5060    24.9887   -52.3663 H       
 359 H359         -15.6687    22.9000   -52.8545 H       
 360 H360         -14.6960    25.6749   -50.1432 H       
 361 H361         -14.0286    22.4415   -51.1901 H       
 362 H362         -13.6298    23.6165   -50.0574 H       
 363 H363         -21.2660    25.2656   -54.9612 H       
 364 H364         -21.8282    27.1412   -57.1277 H       
 365 H365         -23.6983    24.8278   -56.4498 H       
 366 H366         -24.1450    26.2265   -57.4560 H       
 367 H367         -22.1038    23.1807   -57.2495 H       
 368 H368         -21.0897    22.0929   -59.2120 H       
 369 H369         -21.1184    23.2245   -61.3987 H       
 370 H370         -22.1619    25.4435   -61.6231 H       
 371 H371         -23.1834    26.5276   -59.6624 H       
 372 H372         -24.2637    28.1503   -56.4526 H       
 373 H373         -23.6861    29.1159   -53.7488 H       
 374 H374         -25.7275    29.9659   -55.8504 H       
 375 H375         -25.5209    30.7584   -54.2700 H       
 376 H376         -25.0556    32.4462   -56.4073 H       
 377 H377         -23.4086    32.6786   -56.6439 H       
 378 H378         -25.9574    29.5575   -52.4109 H       
 379 H379         -27.2108    26.9409   -52.1504 H       
 380 H380         -27.6743    29.6078   -50.7454 H       
 381 H381         -28.5368    28.1036   -50.3434 H       
 382 H382         -27.2285    28.8005   -48.1559 H       
 383 H383         -25.7277    28.0625   -47.9955 H       
 384 H384         -29.8894    27.2612   -51.8121 H       
 385 H385         -30.8662    28.8736   -54.0736 H       
 386 H386         -32.0702    26.8500   -54.9831 H       
 387 H387         -31.1067    24.6166   -54.2948 H       
 388 H388         -30.2583    25.4489   -52.9697 H       
 389 H389         -32.5383    24.3900   -52.3935 H       
 390 H390         -32.3096    26.0915   -51.9232 H       
 391 H391         -33.2630    25.6889   -53.3714 H       
 392 H392         -29.0249    26.6791   -54.8666 H       
 393 H393         -30.0589    25.8891   -56.0810 H       
 394 H394         -29.9704    27.6653   -56.0075 H       
 395 H395         -33.4966    28.3620   -54.1637 H       
 396 H396         -34.5187    27.5715   -51.5450 H       
 397 H397         -34.8845    30.3906   -52.6529 H       
 398 H398         -35.8010    29.7162   -51.2842 H       
 399 H399         -32.9905    31.8958   -51.7448 H       
 400 H400         -31.3524    31.7053   -49.7482 H       
 401 H401         -31.8123    29.6026   -48.3674 H       
 402 H402         -37.1686    28.0309   -51.7165 H       
 403 H403         -38.0797    27.7877   -54.4802 H       
 404 H404         -38.3455    25.5071   -52.4710 H       
 405 H405         -39.2178    25.5957   -54.0201 H       
 406 H406         -36.1809    25.6690   -53.7360 H       
 407 H407         -38.0448    23.4136   -54.6056 H       
 408 H408         -36.2660    23.3627   -54.6429 H       
 409 H409         -37.1208    23.4686   -53.0852 H       
 410 H410         -37.0801    26.8268   -55.7359 H       
 411 H411         -36.2422    25.3237   -56.1908 H       
 412 H412         -38.0211    25.3747   -56.1535 H       
 413 H413         -40.7039    27.2190   -54.2512 H       
 414 H414         -41.7880    28.3345   -51.7797 H       
 415 H415         -42.0676    29.7524   -54.4667 H       
 416 H416         -43.0225    30.1402   -53.0155 H       
 417 H417         -40.9343    30.6374   -51.7743 H       
 418 H418         -39.9794    30.2496   -53.2255 H       
 419 H419         -39.4743    32.7897   -52.4802 H       
 420 H420         -40.3609    33.9108   -53.3633 H       
 421 H421         -44.4229    28.5907   -52.2839 H       
 422 H422         -45.1441    25.9443   -53.2859 H       
 423 H423         -46.7987    28.2100   -52.0869 H       
 424 H424         -47.4466    26.6142   -52.5363 H       
 425 H425         -46.3993    28.2740   -49.5346 H       
 426 H426         -45.4758    26.5645   -47.8225 H       
 427 H427         -44.9446    24.3263   -48.9397 H       
 428 H428         -47.2803    27.1431   -56.0152 H       
@<TRIPOS>BOND
   1    1    2 2
   2    1    4 1
   3    1    7 am
   4    3    4 1
   5    3  225 1
   6    3  226 1
   7    4  227 1
   8    4  228 1
   9    5    6 2
  10    5   14 am
  11    5    8 1
  12    7    8 1
  13    7   11 1
  14    8    9 1
  15    8  229 1
  16    9   10 1
  17    9  230 1
  18    9  231 1
  19   10   11 1
  20   10  232 1
  21   10  233 1
  22   11  234 1
  23   11  235 1
  24   12   13 2
  25   12   15 1
  26   12   20 am
  27   14   15 1
  28   14  236 1
  29   15   16 1
  30   15  237 1
  31   16   17 1
  32   16  238 1
  33   16  239 1
  34   17  240 1
  35   18   19 2
  36   18   21 1
  37   18   28 am
  38   20   21 1
  39   20  241 1
  40   21   22 1
  41   21  242 1
  42   22   23 1
  43   22  243 1
  44   22  244 1
  45   23   24 1
  46   23   25 1
  47   23  245 1
  48   24  246 1
  49   24  247 1
  50   24  248 1
  51   25  249 1
  52   25  250 1
  53   25  251 1
  54   26   27 2
  55   26   35 am
  56   26   29 1
  57   28   29 1
  58   28   32 1
  59   29   30 1
  60   29  252 1
  61   30   31 1
  62   30  253 1
  63   30  254 1
  64   31   32 1
  65   31  255 1
  66   31  256 1
  67   32  257 1
  68   32  258 1
  69   33   34 2
  70   33   36 1
  71   33   49 am
  72   35   36 1
  73   35  259 1
  74   36   37 1
  75   36  260 1
  76   37   38 1
  77   37  261 1
  78   37  262 1
  79   38   39 2
  80   38   46 1
  81   39   40 1
  82   39  263 1
  83   40   41 1
  84   40  264 1
  85   41   42 ar
  86   41   46 ar
  87   42   43 ar
  88   42  265 1
  89   43   44 ar
  90   43  266 1
  91   44   45 ar
  92   44  267 1
  93   45   46 ar
  94   45  268 1
  95   47   48 2
  96   47   50 1
  97   47   61 am
  98   49   50 1
  99   49  269 1
 100   50   51 1
 101   50  270 1
 102   51   52 1
 103   51  271 1
 104   51  272 1
 105   52   53 ar
 106   52   58 ar
 107   53   54 ar
 108   53  273 1
 109   54   55 ar
 110   54  274 1
 111   55   56 1
 112   55   57 ar
 113   56  275 1
 114   57   58 ar
 115   57  276 1
 116   58  277 1
 117   59   60 2
 118   59   68 am
 119   59   62 1
 120   61   62 1
 121   61   65 1
 122   62   63 1
 123   62  278 1
 124   63   64 1
 125   63  279 1
 126   63  280 1
 127   64   65 1
 128   64  281 1
 129   64  282 1
 130   65  283 1
 131   65  284 1
 132   66   67 2
 133   66   69 1
 134   66   72 am
 135   68   69 1
 136   68  285 1
 137   69  286 1
 138   69  287 1
 139   70   71 2
 140   70   73 1
 141   70   80 am
 142   72   73 1
 143   72  288 1
 144   73   74 1
 145   73  289 1
 146   74   75 1
 147   74  290 1
 148   74  291 1
 149   75   76 2
 150   75   77 am
 151   77  292 1
 152   77  293 1
 153   78   79 2
 154   78   81 1
 155   78   89 am
 156   80   81 1
 157   80  294 1
 158   81   82 1
 159   81  295 1
 160   82   83 1
 161   82  296 1
 162   82  297 1
 163   83   84 1
 164   83  298 1
 165   83  299 1
 166   84   85 2
 167   84   86 am
 168   86  300 1
 169   86  301 1
 170   87   88 2
 171   87   90 1
 172   87   94 am
 173   89   90 1
 174   89  302 1
 175   90   91 1
 176   90  303 1
 177   91  304 1
 178   91  305 1
 179   91  306 1
 180   92   93 2
 181   92  101 am
 182   92   95 1
 183   94   95 1
 184   94   98 1
 185   95   96 1
 186   95  307 1
 187   96   97 1
 188   96  308 1
 189   96  309 1
 190   97   98 1
 191   97  310 1
 192   97  311 1
 193   98  312 1
 194   98  313 1
 195   99  100 2
 196   99  102 1
 197   99  108 am
 198  101  102 1
 199  101  314 1
 200  102  103 1
 201  102  315 1
 202  103  104 1
 203  103  105 1
 204  103  316 1
 205  104  317 1
 206  104  318 1
 207  104  319 1
 208  105  320 1
 209  105  321 1
 210  105  322 1
 211  106  107 2
 212  106  109 1
 213  106  117 am
 214  108  109 1
 215  108  323 1
 216  109  110 1
 217  109  324 1
 218  110  111 1
 219  110  325 1
 220  110  326 1
 221  111  112 1
 222  111  327 1
 223  111  328 1
 224  112  113 2
 225  112  114 1
 226  114  329 1
 227  115  116 2
 228  115  118 1
 229  115  125 am
 230  117  118 1
 231  117  330 1
 232  118  119 1
 233  118  331 1
 234  119  120 1
 235  119  332 1
 236  119  333 1
 237  120  121 2
 238  120  122 am
 239  122  334 1
 240  122  335 1
 241  123  124 2
 242  123  126 1
 243  123  134 am
 244  125  126 1
 245  125  336 1
 246  126  127 1
 247  126  337 1
 248  127  128 1
 249  127  338 1
 250  127  339 1
 251  128  129 1
 252  128  340 1
 253  128  341 1
 254  129  130 2
 255  129  131 am
 256  131  342 1
 257  131  343 1
 258  132  133 2
 259  132  135 1
 260  132  143 am
 261  134  135 1
 262  134  344 1
 263  135  136 1
 264  135  345 1
 265  136  137 1
 266  136  346 1
 267  136  347 1
 268  137  138 1
 269  137  348 1
 270  137  349 1
 271  138  139 2
 272  138  140 1
 273  140  350 1
 274  141  142 2
 275  141  144 1
 276  141  154 am
 277  143  144 1
 278  143  351 1
 279  144  145 1
 280  144  352 1
 281  145  146 1
 282  145  353 1
 283  145  354 1
 284  146  147 1
 285  146  355 1
 286  146  356 1
 287  147  148 1
 288  147  357 1
 289  147  358 1
 290  148  149 1
 291  148  359 1
 292  149  150 2
 293  149  151 1
 294  150  360 1
 295  151  361 1
 296  151  362 1
 297  152  153 2
 298  152  155 1
 299  152  165 am
 300  154  155 1
 301  154  363 1
 302  155  156 1
 303  155  364 1
 304  156  157 1
 305  156  365 1
 306  156  366 1
 307  157  158 ar
 308  157  162 ar
 309  158  159 ar
 310  158  367 1
 311  159  160 ar
 312  159  368 1
 313  160  161 ar
 314  160  369 1
 315  161  162 ar
 316  161  370 1
 317  162  371 1
 318  163  164 2
 319  163  166 1
 320  163  173 am
 321  165  166 1
 322  165  372 1
 323  166  167 1
 324  166  373 1
 325  167  168 1
 326  167  374 1
 327  167  375 1
 328  168  169 2
 329  168  170 am
 330  170  376 1
 331  170  377 1
 332  171  172 2
 333  171  174 1
 334  171  181 am
 335  173  174 1
 336  173  378 1
 337  174  175 1
 338  174  379 1
 339  175  176 1
 340  175  380 1
 341  175  381 1
 342  176  177 2
 343  176  178 am
 344  178  382 1
 345  178  383 1
 346  179  180 2
 347  179  182 1
 348  179  189 am
 349  181  182 1
 350  181  384 1
 351  182  183 1
 352  182  385 1
 353  183  184 1
 354  183  186 1
 355  183  386 1
 356  184  185 1
 357  184  387 1
 358  184  388 1
 359  185  389 1
 360  185  390 1
 361  185  391 1
 362  186  392 1
 363  186  393 1
 364  186  394 1
 365  187  188 2
 366  187  190 1
 367  187  199 am
 368  189  190 1
 369  189  395 1
 370  190  191 1
 371  190  396 1
 372  191  192 1
 373  191  397 1
 374  191  398 1
 375  192  193 2
 376  192  196 1
 377  193  194 1
 378  193  399 1
 379  194  195 1
 380  194  400 1
 381  195  196 2
 382  195  401 1
 383  197  198 2
 384  197  200 1
 385  197  207 am
 386  199  200 1
 387  199  402 1
 388  200  201 1
 389  200  403 1
 390  201  202 1
 391  201  404 1
 392  201  405 1
 393  202  203 1
 394  202  204 1
 395  202  406 1
 396  203  407 1
 397  203  408 1
 398  203  409 1
 399  204  410 1
 400  204  411 1
 401  204  412 1
 402  205  206 2
 403  205  208 1
 404  205  216 am
 405  207  208 1
 406  207  413 1
 407  208  209 1
 408  208  414 1
 409  209  210 1
 410  209  415 1
 411  209  416 1
 412  210  211 1
 413  210  417 1
 414  210  418 1
 415  211  212 2
 416  211  213 am
 417  213  419 1
 418  213  420 1
 419  214  215 2
 420  214  217 1
 421  214  224 1
 422  216  217 1
 423  216  421 1
 424  217  218 1
 425  217  422 1
 426  218  219 1
 427  218  423 1
 428  218  424 1
 429  219  220 2
 430  219  223 1
 431  220  221 1
 432  220  425 1
 433  221  222 1
 434  221  426 1
 435  222  223 2
 436  222  427 1
 437  224  428 1

#	End of record

