#	Name: ASD08170144
#	Creating user name:	WinNT
#	Creation time:	15. 06. 2019 21:17

#	Modifying user name:	WinNT
#	Modification time:	15. 06. 2019 21:17

#	Program:	/corina/corina34_cracker 3.40 0067  02.08.2006

@<TRIPOS>MOLECULE
ASD08170144
 114  117    0    0    0
SMALL
NO_CHARGES


@<TRIPOS>ATOM
   1 C1            -0.0184     1.5028     0.0103 C.3     
   2 C2             1.3963     3.5622     0.0079 C.3     
   3 C3             2.8317     4.0918    -0.0030 C.3     
   4 C4             2.8112     5.5986     0.0053 C.2     
   5 C5             0.0021    -0.0041     0.0020 C.2     
   6 S6             2.7835     6.6466    -1.4134 S.3     
   7 C7             2.7747     8.0128    -0.3799 C.2     
   8 N8             2.7920     7.6028     0.8524 N.2     
   9 N9             2.8052     6.3568     1.0554 N.2     
  10 S10            0.0026    -1.0367    -1.4281 S.3     
  11 N11            0.0281    -0.7735     1.0436 N.2     
  12 N12            0.0418    -2.0172     0.8270 N.2     
  13 C13            0.0310    -2.4140    -0.4097 C.2     
  14 N14            0.0424    -3.7376    -0.8365 N.am    
  15 C15            0.0674    -4.7369     0.0675 C.2     
  16 O16            0.0798    -4.4819     1.2531 O.2     
  17 N17            2.7527     9.3409    -0.7922 N.am    
  18 C18            2.7480    10.3305     0.1228 C.2     
  19 C19            2.7241    11.7696    -0.3239 C.3     
  20 O20            2.7628    10.0628     1.3056 O.2     
  21 C21            0.0798    -6.1712    -0.3949 C.3     
  22 C22            1.3024    -6.4154    -1.2415 C.ar    
  23 C23            1.4170     2.0324    -0.0006 C.3     
  24 C24            1.1635    -6.8287    -2.5533 C.ar    
  25 C25            1.4823    12.0219    -1.1395 C.ar    
  26 C26            1.5910    12.4493    -2.4497 C.ar    
  27 C27            0.4519    12.6808    -3.1979 C.ar    
  28 C28           -0.7958    12.4844    -2.6361 C.ar    
  29 C29           -0.9044    12.0562    -1.3262 C.ar    
  30 C30            0.2347    11.8205    -0.5794 C.ar    
  31 C31            2.5627    -6.2208    -0.7080 C.ar    
  32 C32            3.6842    -6.4448    -1.4845 C.ar    
  33 C33            3.5454    -6.8640    -2.7944 C.ar    
  34 C34            2.2850    -7.0528    -3.3298 C.ar    
  35 C35            0.1080    -7.0989     0.8213 C.3     
  36 C36            2.7233    12.6843     0.9026 C.3     
  37 O37            0.0007    -8.4782     0.3805 O.3     
  38 C38            0.0102    -9.4247     1.3323 C.2     
  39 C39           -0.0974   -10.8785     0.9504 C.3     
  40 O40            0.1051    -9.1110     2.4953 O.2     
  41 C41           -0.0625   -11.7415     2.2133 C.3     
  42 N42           -0.1674   -13.1587     1.8410 N.3     
  43 C43            0.0990   -14.0270     2.9949 C.3     
  44 C44           -0.1607   -15.4849     2.6086 C.3     
  45 C45            0.7489   -15.8673     1.4376 C.3     
  46 C46            0.4858   -14.9173     0.2659 C.3     
  47 C47            0.7267   -13.4759     0.7201 C.3     
  48 O48            2.8198    14.0683     0.4742 O.3     
  49 C49            2.8315    15.0045     1.4360 C.2     
  50 C50            2.9295    16.4624     1.0673 C.3     
  51 O51            2.7634    14.6784     2.5974 O.2     
  52 C52            2.9230    17.3119     2.3398 C.3     
  53 N53            3.0186    18.7330     1.9804 N.3     
  54 C54            2.7780    19.5897     3.1506 C.3     
  55 C55            2.0881    19.0648     0.8917 C.3     
  56 C56            2.2627    20.5370     0.5093 C.3     
  57 O57            2.0558    21.3525     1.6658 O.3     
  58 C58            2.9457    21.0566     2.7456 C.3     
  59 H59           -0.5455     1.8639    -0.8728 H       
  60 H60           -0.5286     1.8543     0.9071 H       
  61 H61            0.8861     3.9137     0.9047 H       
  62 H62            0.8691     3.9233    -0.8752 H       
  63 H63            3.3588     3.7307     0.8801 H       
  64 H64            3.3418     3.7402    -0.8998 H       
  65 H65            0.0325    -3.9415    -1.7848 H       
  66 H66            2.7409     9.5550    -1.7382 H       
  67 H67            3.6057    11.9763    -0.9307 H       
  68 H68           -0.8155    -6.3709    -0.9836 H       
  69 H69            1.9442     1.6713     0.8825 H       
  70 H70            1.9272     1.6808    -0.8974 H       
  71 H71            0.1788    -6.9769    -2.9714 H       
  72 H72            2.5657    12.6027    -2.8886 H       
  73 H73            0.5367    13.0154    -4.2212 H       
  74 H74           -1.6858    12.6660    -3.2204 H       
  75 H75           -1.8792    11.9031    -0.8872 H       
  76 H76            0.1499    11.4859     0.4440 H       
  77 H77            2.6711    -5.8933     0.3155 H       
  78 H78            4.6688    -6.2920    -1.0679 H       
  79 H79            4.4215    -7.0387    -3.4012 H       
  80 H80            2.1765    -7.3803    -4.3532 H       
  81 H81            1.0449    -6.9619     1.3612 H       
  82 H82           -0.7283    -6.8615     1.4788 H       
  83 H83            1.7991    12.5408     1.4623 H       
  84 H84            3.5746    12.4405     1.5382 H       
  85 H85           -1.0354   -11.0467     0.4212 H       
  86 H86            0.7378   -11.1471     0.3036 H       
  87 H87            0.8755   -11.5733     2.7424 H       
  88 H88           -0.8977   -11.4730     2.8601 H       
  89 H89            1.1381   -13.9126     3.3033 H       
  90 H90           -0.5573   -13.7473     3.8190 H       
  91 H91            0.0521   -16.1306     3.4606 H       
  92 H92           -1.2032   -15.6030     2.3132 H       
  93 H93            1.7915   -15.7867     1.7449 H       
  94 H94            0.5367   -16.8915     1.1309 H       
  95 H95            1.1605   -15.1575    -0.5558 H       
  96 H96           -0.5466   -15.0265    -0.0663 H       
  97 H97            0.5264   -12.7959    -0.1079 H       
  98 H98            1.7629   -13.3641     1.0392 H       
  99 H99            3.8550    16.6370     0.5187 H       
 100 H100           2.0795    16.7372     0.4427 H       
 101 H101           1.9975    17.1373     2.8885 H       
 102 H102           3.7730    17.0371     2.9644 H       
 103 H103           1.7649    19.4273     3.5185 H       
 104 H104           3.4944    19.3445     3.9347 H       
 105 H105           2.3008    18.4364     0.0269 H       
 106 H106           1.0640    18.8940     1.2235 H       
 107 H107           3.2709    20.6966     0.1270 H       
 108 H108           1.5355    20.8024    -0.2580 H       
 109 H109           2.7125    21.6979     3.5956 H       
 110 H110           3.9738    21.2313     2.4283 H       
 111 Cl111          9.6688    26.6979     8.9347 Cl      
 112 H112           9.6688    28.0679     8.9347 H       
 113 Cl113         14.6688    33.0679    13.9347 Cl      
 114 H114          14.6688    34.4379    13.9347 H       
@<TRIPOS>BOND
   1    1    5 1
   2    1   23 1
   3    1   59 1
   4    1   60 1
   5    2    3 1
   6    2   23 1
   7    2   61 1
   8    2   62 1
   9    3    4 1
  10    3   63 1
  11    3   64 1
  12    4    6 1
  13    4    9 2
  14    5   10 1
  15    5   11 2
  16    6    7 1
  17    7    8 2
  18    7   17 1
  19    8    9 1
  20   10   13 1
  21   11   12 1
  22   12   13 2
  23   13   14 1
  24   14   15 am
  25   14   65 1
  26   15   16 2
  27   15   21 1
  28   17   18 am
  29   17   66 1
  30   18   19 1
  31   18   20 2
  32   19   25 1
  33   19   36 1
  34   19   67 1
  35   21   22 1
  36   21   35 1
  37   21   68 1
  38   22   24 ar
  39   22   31 ar
  40   23   69 1
  41   23   70 1
  42   24   34 ar
  43   24   71 1
  44   25   26 ar
  45   25   30 ar
  46   26   27 ar
  47   26   72 1
  48   27   28 ar
  49   27   73 1
  50   28   29 ar
  51   28   74 1
  52   29   30 ar
  53   29   75 1
  54   30   76 1
  55   31   32 ar
  56   31   77 1
  57   32   33 ar
  58   32   78 1
  59   33   34 ar
  60   33   79 1
  61   34   80 1
  62   35   37 1
  63   35   81 1
  64   35   82 1
  65   36   48 1
  66   36   83 1
  67   36   84 1
  68   37   38 1
  69   38   39 1
  70   38   40 2
  71   39   41 1
  72   39   85 1
  73   39   86 1
  74   41   42 1
  75   41   87 1
  76   41   88 1
  77   42   43 1
  78   42   47 1
  79   43   44 1
  80   43   89 1
  81   43   90 1
  82   44   45 1
  83   44   91 1
  84   44   92 1
  85   45   46 1
  86   45   93 1
  87   45   94 1
  88   46   47 1
  89   46   95 1
  90   46   96 1
  91   47   97 1
  92   47   98 1
  93   48   49 1
  94   49   50 1
  95   49   51 2
  96   50   52 1
  97   50   99 1
  98   50  100 1
  99   52   53 1
 100   52  101 1
 101   52  102 1
 102   53   54 1
 103   53   55 1
 104   54   58 1
 105   54  103 1
 106   54  104 1
 107   55   56 1
 108   55  105 1
 109   55  106 1
 110   56   57 1
 111   56  107 1
 112   56  108 1
 113   57   58 1
 114   58  109 1
 115   58  110 1
 116  111  112 1
 117  113  114 1

#	End of record

