#	Name: ASD03430660
#	Creating user name:	WinNT
#	Creation time:	15. 06. 2019 20:41

#	Modifying user name:	WinNT
#	Modification time:	15. 06. 2019 20:41

#	Program:	/corina/corina34_cracker 3.40 0067  02.08.2006

@<TRIPOS>MOLECULE
ASD03430660
  48   54    0    0    0
SMALL
NO_CHARGES


@<TRIPOS>ATOM
   1 C1            -0.0167     1.3806     0.0096 C.ar    
   2 C2             0.0021    -0.0041     0.0020 C.ar    
   3 C3             1.2035    -0.6814    -0.0133 C.ar    
   4 C4             2.4092     0.0135    -0.0098 C.ar    
   5 C5             2.3874     1.4049    -0.0074 C.ar    
   6 C6             1.1840     2.0869     0.0020 C.ar    
   7 O7             3.4719    -0.8412     0.0036 O.3     
   8 C8             1.5521    -2.1452    -0.0497 C.3     
   9 C9             3.0389    -2.1443    -0.4316 C.3     
  10 C10            0.4260    -3.8639     0.9986 C.ar    
  11 C11            1.3129    -2.8237     1.2663 C.ar    
  12 C12            0.7217    -2.9034    -1.0452 C.2     
  13 N13            0.1004    -3.8836    -0.3597 N.am    
  14 O14            0.6287    -2.6780    -2.2334 O.2     
  15 C15            1.7747    -2.6089     2.5453 C.ar    
  16 C16            1.3589    -3.4291     3.5794 C.ar    
  17 C17            0.4789    -4.4648     3.3251 C.ar    
  18 C18            0.0133    -4.6845     2.0450 C.ar    
  19 O19           -1.0496     2.2737     0.0188 O.3     
  20 C20           -0.4709     3.5263     0.4302 C.3     
  21 O21            0.9023     3.4232     0.0055 O.3     
  22 C22           -0.8104    -4.8564    -0.9683 C.3     
  23 C23           -2.2183    -4.3206    -0.9269 C.2     
  24 C24           -2.7841    -3.5757    -1.8864 C.2     
  25 C25           -4.1477    -3.2846    -1.4277 C.ar    
  26 C26           -4.2661    -3.9159    -0.1782 C.ar    
  27 O27           -3.0907    -4.5255     0.0754 O.3     
  28 C28           -5.2228    -2.5717    -1.9564 C.ar    
  29 C29           -6.3929    -2.4897    -1.2537 C.ar    
  30 C30           -6.5160    -3.1110    -0.0193 C.ar    
  31 C31           -5.4639    -3.8205     0.5192 C.ar    
  32 H32           -0.9267    -0.5552     0.0085 H       
  33 H33            3.3162     1.9560    -0.0124 H       
  34 H34            3.1618    -2.2531    -1.5091 H       
  35 H35            3.5760    -2.9287     0.1016 H       
  36 H36            2.4619    -1.7993     2.7418 H       
  37 H37            1.7211    -3.2608     4.5829 H       
  38 H38            0.1548    -5.1051     4.1322 H       
  39 H39           -0.6739    -5.4954     1.8542 H       
  40 H40           -0.9635     4.3590    -0.0718 H       
  41 H41           -0.5329     3.6396     1.5126 H       
  42 H42           -0.5178    -5.0296    -2.0039 H       
  43 H43           -0.7623    -5.7945    -0.4154 H       
  44 H44           -2.3283    -3.2537    -2.8110 H       
  45 H45           -5.1317    -2.0861    -2.9167 H       
  46 H46           -7.2264    -1.9375    -1.6620 H       
  47 H47           -7.4458    -3.0382     0.5253 H       
  48 H48           -5.5705    -4.3009     1.4806 H       
@<TRIPOS>BOND
   1    1    2 ar
   2    1    6 ar
   3    1   19 1
   4    2    3 ar
   5    2   32 1
   6    3    4 ar
   7    3    8 1
   8    4    5 ar
   9    4    7 1
  10    5    6 ar
  11    5   33 1
  12    6   21 1
  13    7    9 1
  14    8    9 1
  15    8   11 1
  16    8   12 1
  17    9   34 1
  18    9   35 1
  19   10   11 ar
  20   10   13 1
  21   10   18 ar
  22   11   15 ar
  23   12   13 am
  24   12   14 2
  25   13   22 1
  26   15   16 ar
  27   15   36 1
  28   16   17 ar
  29   16   37 1
  30   17   18 ar
  31   17   38 1
  32   18   39 1
  33   19   20 1
  34   20   21 1
  35   20   40 1
  36   20   41 1
  37   22   23 1
  38   22   42 1
  39   22   43 1
  40   23   24 2
  41   23   27 1
  42   24   25 1
  43   24   44 1
  44   25   26 ar
  45   25   28 ar
  46   26   27 1
  47   26   31 ar
  48   28   29 ar
  49   28   45 1
  50   29   30 ar
  51   29   46 1
  52   30   31 ar
  53   30   47 1
  54   31   48 1

#	End of record

