#	Name: ASD01882253
#	Creating user name:	WinNT
#	Creation time:	15. 06. 2019 19:44

#	Modifying user name:	WinNT
#	Modification time:	15. 06. 2019 19:44

#	Program:	/corina/corina34_cracker 3.40 0067  02.08.2006

@<TRIPOS>MOLECULE
ASD01882253
  55   59    0    0    0
SMALL
NO_CHARGES


@<TRIPOS>ATOM
   1 C1            -0.0184     1.5028     0.0103 C.3     
   2 C2             0.0021    -0.0041     0.0020 C.2     
   3 C3             0.1060    -0.7016    -1.2137 C.2     
   4 C4             0.1247    -2.0508    -1.2269 C.2     
   5 N5             0.0427    -2.7565    -0.0622 N.pl3   
   6 C6            -0.0597    -2.1037     1.1415 C.2     
   7 C7            -0.0744    -0.6949     1.1724 C.2     
   8 Cl8           -0.1961     0.1493     2.6844 Cl      
   9 C9             0.0366    -4.0846     0.2327 C.2     
  10 N10           -0.0635    -4.1987     1.5321 N.2     
  11 N11           -0.1211    -3.0353     2.0789 N.2     
  12 C12            0.1280    -5.2176    -0.7568 C.3     
  13 C13            1.5969    -5.5827    -0.9798 C.3     
  14 N14            1.3598     2.0112    -0.0001 N.3     
  15 C15            1.3791     3.4801     0.0076 C.3     
  16 C16            2.6988     3.9697     0.6073 C.3     
  17 C17            2.7188     5.4995     0.6153 C.3     
  18 C18            2.5861     6.0188    -0.8177 C.3     
  19 C19            1.2664     5.5292    -1.4174 C.3     
  20 C20            1.2463     3.9994    -1.4255 C.3     
  21 C21            2.6059     7.5257    -0.8098 C.ar    
  22 C22            3.5889     8.2077    -1.5023 C.ar    
  23 C23            3.6071     9.5899    -1.4950 C.ar    
  24 C24            2.6419    10.2901    -0.7956 C.ar    
  25 C25            1.6584     9.6081    -0.1040 C.ar    
  26 C26            1.6377     8.2260    -0.1148 C.ar    
  27 C27            1.8973    -6.7933    -1.8659 C.3     
  28 C28            2.1701    -5.3797    -2.3838 C.3     
  29 H29           -0.5455     1.8639    -0.8728 H       
  30 H30           -0.5286     1.8543     0.9071 H       
  31 H31            0.1709    -0.1546    -2.1426 H       
  32 H32            0.2049    -2.5762    -2.1671 H       
  33 H33           -0.4068    -6.0840    -0.3675 H       
  34 H34           -0.3178    -4.9105    -1.7029 H       
  35 H35            2.2601    -5.4012    -0.1340 H       
  36 H36            1.8886     1.6386     0.7742 H       
  37 H37            0.5478     3.8512     0.6070 H       
  38 H38            2.7933     3.5997     1.6282 H       
  39 H39            3.5301     3.5985     0.0079 H       
  40 H40            1.8875     5.8707     1.2147 H       
  41 H41            3.6590     5.8483     1.0425 H       
  42 H42            3.4174     5.6477    -1.4172 H       
  43 H43            0.4351     5.9004    -0.8180 H       
  44 H44            1.1718     5.8992    -2.4384 H       
  45 H45            2.0776     3.6283    -2.0249 H       
  46 H46            0.3062     3.6506    -1.8527 H       
  47 H47            4.3429     7.6606    -2.0486 H       
  48 H48            4.3755    10.1227    -2.0354 H       
  49 H49            2.6565    11.3700    -0.7894 H       
  50 H50            0.9045    10.1552     0.4427 H       
  51 H51            0.8692     7.6932     0.4256 H       
  52 H52            2.7582    -7.4080    -1.6033 H       
  53 H53            1.0483    -7.3296    -2.2900 H       
  54 H54            1.5006    -4.9859    -3.1486 H       
  55 H55            3.2105    -5.0644    -2.4619 H       
@<TRIPOS>BOND
   1    1    2 1
   2    1   14 1
   3    1   29 1
   4    1   30 1
   5    2    3 1
   6    2    7 2
   7    3    4 2
   8    3   31 1
   9    4    5 1
  10    4   32 1
  11    5    9 1
  12    5    6 1
  13    6    7 1
  14    6   11 2
  15    7    8 1
  16    9   10 2
  17    9   12 1
  18   10   11 1
  19   12   13 1
  20   12   33 1
  21   12   34 1
  22   13   27 1
  23   13   28 1
  24   13   35 1
  25   14   15 1
  26   14   36 1
  27   15   16 1
  28   15   20 1
  29   15   37 1
  30   16   17 1
  31   16   38 1
  32   16   39 1
  33   17   18 1
  34   17   40 1
  35   17   41 1
  36   18   19 1
  37   18   21 1
  38   18   42 1
  39   19   20 1
  40   19   43 1
  41   19   44 1
  42   20   45 1
  43   20   46 1
  44   21   22 ar
  45   21   26 ar
  46   22   23 ar
  47   22   47 1
  48   23   24 ar
  49   23   48 1
  50   24   25 ar
  51   24   49 1
  52   25   26 ar
  53   25   50 1
  54   26   51 1
  55   27   28 1
  56   27   52 1
  57   27   53 1
  58   28   54 1
  59   28   55 1

#	End of record

