#	Name: ASD01200080
#	Creating user name:	WinNT
#	Creation time:	15. 06. 2019 19:08

#	Modifying user name:	WinNT
#	Modification time:	15. 06. 2019 19:08

#	Program:	/corina/corina34_cracker 3.40 0067  02.08.2006

@<TRIPOS>MOLECULE
ASD01200080
  39   41    0    0    0
SMALL
NO_CHARGES


@<TRIPOS>ATOM
   1 C1             0.4761     1.4879    -1.4636 C.2     
   2 C2             0.3526     0.1663    -0.8132 C.ar    
   3 C3             1.4595    -0.6793    -0.7298 C.ar    
   4 C4             1.3361    -1.9157    -0.1186 C.ar    
   5 C5             0.1138    -2.3114     0.4087 C.ar    
   6 C6            -0.9835    -1.4747     0.3268 C.ar    
   7 C7            -0.8704    -0.2379    -0.2751 C.ar    
   8 O8             1.5434     1.8398    -1.9270 O.2     
   9 N9            -0.5959     2.3004    -1.5478 N.am    
  10 S10            0.9567     4.1654    -2.8453 S.3     
  11 C11           -0.4798     3.5422    -2.1589 C.2     
  12 N12           -1.4449     4.3976    -2.2919 N.2     
  13 C13           -1.1574     5.5329    -2.9006 C.2     
  14 C14            0.1109     5.6421    -3.3010 C.2     
  15 C15           -2.1790     6.6176    -3.1260 C.3     
  16 O16            2.4115    -2.7423    -0.0352 O.3     
  17 C17            3.2271    -2.6211     1.0449 C.ar    
  18 C18            2.8935    -1.7516     2.0735 C.ar    
  19 C19            3.7243    -1.6303     3.1704 C.ar    
  20 C20            4.8875    -2.3742     3.2439 C.ar    
  21 C21            5.2225    -3.2410     2.2200 C.ar    
  22 C22            4.3920    -3.3708     1.1238 C.ar    
  23 C23            5.7920    -2.2398     4.4417 C.3     
  24 H24            2.4092    -0.3705    -1.1410 H       
  25 H25            0.0202    -3.2766     0.8843 H       
  26 H26           -1.9315    -1.7883     0.7384 H       
  27 H27           -1.7286     0.4151    -0.3334 H       
  28 H28           -1.4485     2.0179    -1.1815 H       
  29 H29            0.5432     6.4879    -3.8149 H       
  30 H30           -2.1766     7.3010    -2.2768 H       
  31 H31           -1.9317     7.1664    -4.0347 H       
  32 H32           -3.1674     6.1700    -3.2294 H       
  33 H33            1.9853    -1.1701     2.0165 H       
  34 H34            3.4653    -0.9534     3.9712 H       
  35 H35            6.1320    -3.8205     2.2795 H       
  36 H36            4.6515    -4.0518     0.3267 H       
  37 H37            5.4973    -2.9625     5.2025 H       
  38 H38            6.8228    -2.4281     4.1416 H       
  39 H39            5.7102    -1.2314     4.8474 H       
@<TRIPOS>BOND
   1    1    2 1
   2    1    8 2
   3    1    9 am
   4    2    3 ar
   5    2    7 ar
   6    3    4 ar
   7    3   24 1
   8    4    5 ar
   9    4   16 1
  10    5    6 ar
  11    5   25 1
  12    6    7 ar
  13    6   26 1
  14    7   27 1
  15    9   11 1
  16    9   28 1
  17   10   11 1
  18   10   14 1
  19   11   12 2
  20   12   13 1
  21   13   14 2
  22   13   15 1
  23   14   29 1
  24   15   30 1
  25   15   31 1
  26   15   32 1
  27   16   17 1
  28   17   18 ar
  29   17   22 ar
  30   18   19 ar
  31   18   33 1
  32   19   20 ar
  33   19   34 1
  34   20   21 ar
  35   20   23 1
  36   21   22 ar
  37   21   35 1
  38   22   36 1
  39   23   37 1
  40   23   38 1
  41   23   39 1

#	End of record

