#	Name: ASD03730239
#	Creating user name:	WinNT
#	Creation time:	15. 06. 2019 20:44

#	Modifying user name:	WinNT
#	Modification time:	15. 06. 2019 20:44

#	Program:	/corina/corina34_cracker 3.40 0067  02.08.2006

@<TRIPOS>MOLECULE
ASD03730239
  64   69    0    0    0
SMALL
NO_CHARGES


@<TRIPOS>ATOM
   1 O1            -0.4530     1.1676     1.2369 O.3     
   2 C2            -0.3908    -0.2692     1.3063 C.3     
   3 O3             0.6997    -0.6076     0.4293 O.3     
   4 C4             1.5247     0.4808     0.4360 C.ar    
   5 C5             0.8144     1.5727     0.9295 C.ar    
   6 C6             2.8469     0.6296     0.0576 C.ar    
   7 C7             3.4745     1.8674     0.1604 C.ar    
   8 C8             2.7505     2.9543     0.6410 C.ar    
   9 C9             1.4348     2.8069     1.0278 C.ar    
  10 O10            4.7583     2.2207    -0.1348 O.3     
  11 C11            3.6777     4.1395     0.5995 C.3     
  12 C12            4.8349     3.6515    -0.2831 C.3     
  13 N13            3.1098     6.3231     0.9637 N.am    
  14 C14            3.0153     5.3594     0.0259 C.2     
  15 C15            4.1474     4.5473     1.9640 C.ar    
  16 C16            4.8213     3.8886     2.9835 C.ar    
  17 C17            5.1217     4.5647     4.1658 C.ar    
  18 C18            4.7461     5.8852     4.3134 C.ar    
  19 C19            4.0757     6.5394     3.2998 C.ar    
  20 C20            3.7692     5.8770     2.1122 C.ar    
  21 O21            2.4970     5.4579    -1.0662 O.2     
  22 C22            2.5826     7.6798     0.7981 C.3     
  23 C23            1.1385     7.7308     1.3012 C.3     
  24 C24            0.5879     9.1478     1.1283 C.3     
  25 C25           -0.8561     9.1987     1.6313 C.3     
  26 C26           -1.4067    10.6157     1.4584 C.3     
  27 C27            5.2213     2.4698     2.8155 C.ar    
  28 C28            6.1212     2.1120     1.8128 C.ar    
  29 C29            6.4917     0.7909     1.6595 C.ar    
  30 C30            5.9676    -0.1811     2.5045 C.ar    
  31 C31            5.0719     0.1737     3.5026 C.ar    
  32 C32            4.7025     1.4935     3.6634 C.ar    
  33 F33            7.3634     0.4424     0.6880 F       
  34 O34            6.3331    -1.4814     2.3518 O.3     
  35 C35            5.7565    -2.4276     3.2542 C.3     
  36 C36            6.2826    -3.8273     2.9303 C.3     
  37 H37           -0.1784    -0.5946     2.3246 H       
  38 H38           -1.3211    -0.7105     0.9484 H       
  39 H39            3.3955    -0.2204    -0.3206 H       
  40 H40            0.8868     3.6564     1.4078 H       
  41 H41            5.7887     4.0285     0.0858 H       
  42 H42            4.6784     3.9419    -1.3220 H       
  43 H43            5.6460     4.0576     4.9623 H       
  44 H44            4.9782     6.4097     5.2286 H       
  45 H45            3.7866     7.5721     3.4277 H       
  46 H46            3.1918     8.3788     1.3712 H       
  47 H47            2.6098     7.9541    -0.2565 H       
  48 H48            0.5293     7.0318     0.7281 H       
  49 H49            1.1113     7.4566     2.3558 H       
  50 H50            1.1971     9.8467     1.7013 H       
  51 H51            0.6152     9.4220     0.0737 H       
  52 H52           -1.4654     8.4997     1.0583 H       
  53 H53           -0.8834     8.9245     2.6859 H       
  54 H54           -1.3795    10.8899     0.4038 H       
  55 H55           -2.4355    10.6520     1.8168 H       
  56 H56           -0.7975    11.3147     2.0315 H       
  57 H57            6.5279     2.8672     1.1565 H       
  58 H58            4.6665    -0.5834     4.1574 H       
  59 H59            4.0086     1.7690     4.4438 H       
  60 H60            6.0268    -2.1655     4.2771 H       
  61 H61            4.6715    -2.4142     3.1503 H       
  62 H62            5.8428    -4.5490     3.6186 H       
  63 H63            6.0123    -4.0893     1.9074 H       
  64 H64            7.3676    -3.8407     3.0342 H       
@<TRIPOS>BOND
   1    1    2 1
   2    1    5 1
   3    2    3 1
   4    2   37 1
   5    2   38 1
   6    3    4 1
   7    4    5 ar
   8    4    6 ar
   9    5    9 ar
  10    6    7 ar
  11    6   39 1
  12    7    8 ar
  13    7   10 1
  14    8    9 ar
  15    8   11 1
  16    9   40 1
  17   10   12 1
  18   11   12 1
  19   11   14 1
  20   11   15 1
  21   12   41 1
  22   12   42 1
  23   13   14 am
  24   13   20 1
  25   13   22 1
  26   14   21 2
  27   15   16 ar
  28   15   20 ar
  29   16   17 ar
  30   16   27 1
  31   17   18 ar
  32   17   43 1
  33   18   19 ar
  34   18   44 1
  35   19   20 ar
  36   19   45 1
  37   22   23 1
  38   22   46 1
  39   22   47 1
  40   23   24 1
  41   23   48 1
  42   23   49 1
  43   24   25 1
  44   24   50 1
  45   24   51 1
  46   25   26 1
  47   25   52 1
  48   25   53 1
  49   26   54 1
  50   26   55 1
  51   26   56 1
  52   27   28 ar
  53   27   32 ar
  54   28   29 ar
  55   28   57 1
  56   29   30 ar
  57   29   33 1
  58   30   31 ar
  59   30   34 1
  60   31   32 ar
  61   31   58 1
  62   32   59 1
  63   34   35 1
  64   35   36 1
  65   35   60 1
  66   35   61 1
  67   36   62 1
  68   36   63 1
  69   36   64 1

#	End of record

