#	Name: ASD03331856
#	Creating user name:	WinNT
#	Creation time:	15. 06. 2019 20:40

#	Modifying user name:	WinNT
#	Modification time:	15. 06. 2019 20:40

#	Program:	/corina/corina34_cracker 3.40 0067  02.08.2006

@<TRIPOS>MOLECULE
ASD03331856
  48   51    0    0    0
SMALL
NO_CHARGES


@<TRIPOS>ATOM
   1 C1             1.1669    -0.4242    -1.2311 C.ar    
   2 C2             0.6548     0.0107    -2.4419 C.ar    
   3 C3             1.1654     1.1488    -3.0430 C.ar    
   4 C4             2.1869     1.8526    -2.4358 C.ar    
   5 C5             2.7015     1.4184    -1.2215 C.ar    
   6 C6             2.1881     0.2770    -0.6203 C.ar    
   7 N7             3.7377     2.1304    -0.6043 N.am    
   8 C8             3.7768     3.4748    -0.6916 C.2     
   9 N9             4.7205     4.1664    -0.0226 N.am    
  10 O10            2.9607     4.0637    -1.3740 O.2     
  11 C11            4.8219     5.5523    -0.1887 C.ar    
  12 C12            3.7716     7.6857    -0.5306 C.ar    
  13 C13            3.6755     6.3167    -0.3657 C.ar    
  14 C14            6.0665     6.1637    -0.1708 C.ar    
  15 C15            6.1625     7.5430    -0.3366 C.ar    
  16 C16            5.0069     8.3013    -0.5194 C.ar    
  17 C17            7.4904     8.2036    -0.3181 C.ar    
  18 N18            8.5774     7.4651    -0.1425 N.ar    
  19 C19            9.7799     8.0187    -0.1201 C.ar    
  20 C20            9.8980     9.3861    -0.2827 C.ar    
  21 C21            8.7352    10.1385    -0.4658 C.ar    
  22 N22            7.5612     9.5170    -0.4830 N.ar    
  23 N23            8.8058    11.5122    -0.6323 N.3     
  24 C24            7.4619    12.0929    -0.8079 C.3     
  25 C25            7.2788    13.1618     0.2901 C.3     
  26 C26            8.7381    13.5252     0.6709 C.3     
  27 C27            9.4477    12.1550     0.5341 C.3     
  28 F28           -0.3441    -0.6766    -3.0377 F       
  29 H29            0.7645    -1.3098    -0.7618 H       
  30 H30            0.7649     1.4861    -3.9876 H       
  31 H31            2.5854     2.7398    -2.9053 H       
  32 H32            2.5870    -0.0622     0.3242 H       
  33 H33            4.4271     1.6560    -0.1139 H       
  34 H34            5.3293     3.7035     0.5741 H       
  35 H35            2.8774     8.2754    -0.6687 H       
  36 H36            2.7065     5.8398    -0.3750 H       
  37 H37            6.9587     5.5720    -0.0285 H       
  38 H38            5.0781     9.3712    -0.6485 H       
  39 H39           10.6591     7.4082     0.0239 H       
  40 H40           10.8673     9.8623    -0.2681 H       
  41 H41            7.3833    12.5549    -1.7920 H       
  42 H42            6.7051    11.3160    -0.6990 H       
  43 H43            6.7549    14.0328    -0.1036 H       
  44 H44            6.7487    12.7468     1.1473 H       
  45 H45            9.1543    14.2518    -0.0268 H       
  46 H46            8.7942    13.8934     1.6953 H       
  47 H47            9.2918    11.5557     1.4311 H       
  48 H48           10.5129    12.2959     0.3512 H       
@<TRIPOS>BOND
   1    1    2 ar
   2    1    6 ar
   3    1   29 1
   4    2    3 ar
   5    2   28 1
   6    3    4 ar
   7    3   30 1
   8    4    5 ar
   9    4   31 1
  10    5    6 ar
  11    5    7 1
  12    6   32 1
  13    7    8 am
  14    7   33 1
  15    8    9 am
  16    8   10 2
  17    9   11 1
  18    9   34 1
  19   11   14 ar
  20   11   13 ar
  21   12   13 ar
  22   12   16 ar
  23   12   35 1
  24   13   36 1
  25   14   15 ar
  26   14   37 1
  27   15   16 ar
  28   15   17 1
  29   16   38 1
  30   17   18 ar
  31   17   22 ar
  32   18   19 ar
  33   19   20 ar
  34   19   39 1
  35   20   21 ar
  36   20   40 1
  37   21   22 ar
  38   21   23 1
  39   23   24 1
  40   23   27 1
  41   24   25 1
  42   24   41 1
  43   24   42 1
  44   25   26 1
  45   25   43 1
  46   25   44 1
  47   26   27 1
  48   26   45 1
  49   26   46 1
  50   27   47 1
  51   27   48 1

#	End of record

