#	Name: ASD01820112
#	Creating user name:	WinNT
#	Creation time:	15. 06. 2019 19:36

#	Modifying user name:	WinNT
#	Modification time:	15. 06. 2019 19:36

#	Program:	/corina/corina34_cracker 3.40 0067  02.08.2006

@<TRIPOS>MOLECULE
ASD01820112
  60   63    0    0    0
SMALL
NO_CHARGES


@<TRIPOS>ATOM
   1 C1             0.0012     1.5085     0.0442 C.3     
   2 C2             0.0187    -0.0211     0.0152 C.3     
   3 C3             0.7194    -0.4991    -1.2582 C.3     
   4 N4             2.1273    -0.0960    -1.2215 N.am    
   5 C5             2.4874     1.1337    -1.6396 C.2     
   6 O6             1.6605     1.8722    -2.1403 O.2     
   7 C7             3.8805     1.5827    -1.4906 C.2     
   8 C8             4.2875     2.7923    -2.0123 C.2     
   9 N9             5.5492     3.2341    -1.8951 N.pl3   
  10 C10            6.5333     2.5202    -1.2491 C.ar    
  11 N11            7.7660     3.0048    -1.1623 N.ar    
  12 C12            8.7293     2.3389    -0.5468 C.ar    
  13 C13            8.4940     1.0942     0.0407 C.ar    
  14 C14            7.2401     0.5490    -0.0201 C.ar    
  15 C15            6.2362     1.2707    -0.6761 C.ar    
  16 C16            4.8636     0.7513    -0.7761 C.2     
  17 O17            4.5543    -0.3240    -0.2922 O.2     
  18 N18            9.9989     2.8881    -0.4842 N.3     
  19 C19           10.9842     2.0335    -1.1950 C.3     
  20 C20           12.1568     3.0055    -1.4789 C.3     
  21 H21           12.7875     3.1171    -0.5969 H       
  22 O22           12.9271     2.5560    -2.5955 O.3     
  23 C23           11.4344     4.3324    -1.8065 C.3     
  24 H24           11.3417     4.4564    -2.8854 H       
  25 O25           12.1439     5.4362    -1.2404 O.3     
  26 C26           10.0420     4.2021    -1.1618 C.3     
  27 C27            5.8797     4.4763    -2.4551 C.ar    
  28 C28            6.3245     4.5512    -3.7700 C.ar    
  29 F29            6.4390     3.4268    -4.5102 F       
  30 C30            6.6494     5.7781    -4.3200 C.ar    
  31 C31            6.5318     6.9311    -3.5621 C.ar    
  32 F32            6.8494     8.1281    -4.1020 F       
  33 C33            6.0890     6.8595    -2.2520 C.ar    
  34 C34            5.7577     5.6360    -1.6983 C.ar    
  35 F35            5.3208     5.5676    -0.4218 F       
  36 C36            0.6275    -2.0236    -1.3493 C.3     
  37 F37            1.2474    -2.5956    -0.2331 F       
  38 F38           -0.7170    -2.4085    -1.3843 F       
  39 C39            1.3282    -2.5016    -2.6226 C.3     
  40 F40            2.6727    -2.1167    -2.5876 F       
  41 F41            1.2442    -3.8956    -2.7059 F       
  42 F42            0.7083    -1.9296    -3.7388 F       
  43 H43            1.0244     1.8839     0.0297 H       
  44 H44           -0.5353     1.8823    -0.8279 H       
  45 H45           -0.4980     1.8491     0.9513 H       
  46 H46            0.5552    -0.3949     0.8873 H       
  47 H47           -1.0045    -0.3965     0.0296 H       
  48 H48            0.2364    -0.0534    -2.1278 H       
  49 H49            2.8005    -0.7141    -0.8963 H       
  50 H50            3.5666     3.4049    -2.5333 H       
  51 H51            9.2941     0.5665     0.5383 H       
  52 H52            7.0309    -0.4119     0.4263 H       
  53 H53           11.3112     1.2119    -0.5577 H       
  54 H54           10.5638     1.6552    -2.1268 H       
  55 H55           13.3382     1.6902    -2.4667 H       
  56 H56           11.7367     6.2960    -1.4137 H       
  57 H57            9.2709     4.2488    -1.9308 H       
  58 H58            9.8935     5.0000    -0.4343 H       
  59 H59            6.9953     5.8369    -5.3414 H       
  60 H60            5.9983     7.7604    -1.6633 H       
@<TRIPOS>BOND
   1    1    2 1
   2    1   43 1
   3    1   44 1
   4    1   45 1
   5    2    3 1
   6    2   46 1
   7    2   47 1
   8    3    4 1
   9    3   36 1
  10    3   48 1
  11    4    5 am
  12    4   49 1
  13    5    6 2
  14    5    7 1
  15    7   16 1
  16    7    8 2
  17    8    9 1
  18    8   50 1
  19    9   10 1
  20    9   27 1
  21   10   15 ar
  22   10   11 ar
  23   11   12 ar
  24   12   13 ar
  25   12   18 1
  26   13   14 ar
  27   13   51 1
  28   14   15 ar
  29   14   52 1
  30   15   16 1
  31   16   17 2
  32   18   26 1
  33   18   19 1
  34   19   20 1
  35   19   53 1
  36   19   54 1
  37   20   21 1
  38   20   22 1
  39   20   23 1
  40   22   55 1
  41   23   24 1
  42   23   25 1
  43   23   26 1
  44   25   56 1
  45   26   57 1
  46   26   58 1
  47   27   34 ar
  48   27   28 ar
  49   28   29 1
  50   28   30 ar
  51   30   31 ar
  52   30   59 1
  53   31   32 1
  54   31   33 ar
  55   33   34 ar
  56   33   60 1
  57   34   35 1
  58   36   37 1
  59   36   38 1
  60   36   39 1
  61   39   40 1
  62   39   41 1
  63   39   42 1

#	End of record

