#	Name: ASD02198158
#	Creating user name:	WinNT
#	Creation time:	15. 06. 2019 20:18

#	Modifying user name:	WinNT
#	Modification time:	15. 06. 2019 20:18

#	Program:	/corina/corina34_cracker 3.40 0067  02.08.2006

@<TRIPOS>MOLECULE
ASD02198158
  55   56    0    0    0
SMALL
NO_CHARGES


@<TRIPOS>ATOM
   1 C1            -0.0188     1.3476    -0.2632 C.2     
   2 C2             0.0073    -0.0300    -0.2118 C.2     
   3 C3            -1.1767    -0.8349    -0.2426 C.1     
   4 S4             1.5603     1.9881    -0.2064 S.3     
   5 C5             2.2769     0.3874    -0.1119 C.2     
   6 C6             1.2898    -0.5684    -0.1272 C.2     
   7 C7             3.6583     0.1228    -0.0329 C.2     
   8 C8             4.6305     1.2297    -0.1481 C.ar    
   9 O9             4.0519    -1.0200     0.1305 O.2     
  10 N10            1.5439    -1.9299    -0.0640 N.pl3   
  11 N11           -1.1642     2.1033    -0.3540 N.pl3   
  12 N12           -2.1160    -1.4733    -0.2670 N.1     
  13 C13            5.2817     1.7122     0.9884 C.ar    
  14 C14            6.1904     2.7486     0.8735 C.ar    
  15 C15            6.4557     3.3099    -0.3691 C.ar    
  16 C16            5.8155     2.8380    -1.4983 C.ar    
  17 C17            4.9072     1.7959    -1.3991 C.ar    
  18 C18           -1.0757     3.5649    -0.4022 C.3     
  19 C19           -2.3141     4.1281    -1.1021 C.3     
  20 C20           -2.3244     3.6749    -2.5634 C.3     
  21 C21           -3.6231     4.1327    -3.2303 C.3     
  22 O22           -1.0183     3.3552     1.9440 O.2     
  23 C23           -1.0001     4.1100     1.0007 C.2     
  24 C24           -1.1304     4.2897    -3.2965 C.3     
  25 O25           -0.9125     5.4342     1.2024 O.3     
  26 C26           -0.8433     5.8880     2.5799 C.3     
  27 O27            4.2784     1.3329    -2.5099 O.3     
  28 C28            4.6009     1.9665    -3.7495 C.3     
  29 O29            6.8255     3.2196     1.9799 O.3     
  30 C30            7.7514     4.2912     1.7896 C.3     
  31 H31            2.4575    -2.2505    -0.0055 H       
  32 H32            0.8081    -2.5618    -0.0784 H       
  33 H33           -2.0308     1.6686    -0.3863 H       
  34 H34            5.0761     1.2775     1.9554 H       
  35 H35            7.1658     4.1193    -0.4525 H       
  36 H36            6.0266     3.2790    -2.4613 H       
  37 H37           -0.1821     3.8568    -0.9540 H       
  38 H38           -3.2114     3.7633    -0.6023 H       
  39 H39           -2.2918     5.2170    -1.0596 H       
  40 H40           -2.2571     2.5878    -2.6072 H       
  41 H41           -3.6904     5.2197    -3.1865 H       
  42 H42           -3.6304     3.8098    -4.2713 H       
  43 H43           -4.4737     3.6947    -2.7080 H       
  44 H44           -1.1977     5.3767    -3.2527 H       
  45 H45           -0.2052     3.9635    -2.8214 H       
  46 H46           -1.1377     3.9668    -4.3375 H       
  47 H47            0.0368     5.4598     3.0598 H       
  48 H48           -0.7757     6.9757     2.6012 H       
  49 H49           -1.7390     5.5692     3.1130 H       
  50 H50            4.0306     1.5021    -4.5541 H       
  51 H51            4.3511     3.0260    -3.6918 H       
  52 H52            5.6667     1.8548    -3.9483 H       
  53 H53            8.1862     4.5704     2.7494 H       
  54 H54            8.5427     3.9716     1.1116 H       
  55 H55            7.2317     5.1490     1.3628 H       
@<TRIPOS>BOND
   1    1    2 2
   2    1    4 1
   3    1   11 1
   4    2    3 1
   5    2    6 1
   6    3   12 3
   7    4    5 1
   8    5    6 2
   9    5    7 1
  10    6   10 1
  11    7    8 1
  12    7    9 2
  13    8   13 ar
  14    8   17 ar
  15   10   31 1
  16   10   32 1
  17   11   18 1
  18   11   33 1
  19   13   14 ar
  20   13   34 1
  21   14   15 ar
  22   14   29 1
  23   15   16 ar
  24   15   35 1
  25   16   17 ar
  26   16   36 1
  27   17   27 1
  28   18   19 1
  29   18   23 1
  30   18   37 1
  31   19   20 1
  32   19   38 1
  33   19   39 1
  34   20   21 1
  35   20   24 1
  36   20   40 1
  37   21   41 1
  38   21   42 1
  39   21   43 1
  40   22   23 2
  41   23   25 1
  42   24   44 1
  43   24   45 1
  44   24   46 1
  45   25   26 1
  46   26   47 1
  47   26   48 1
  48   26   49 1
  49   27   28 1
  50   28   50 1
  51   28   51 1
  52   28   52 1
  53   29   30 1
  54   30   53 1
  55   30   54 1
  56   30   55 1

#	End of record

