#	Name: ASD01001227
#	Creating user name:	WinNT
#	Creation time:	15. 06. 2019 18:55

#	Modifying user name:	WinNT
#	Modification time:	15. 06. 2019 18:55

#	Program:	/corina/corina34_cracker 3.40 0067  02.08.2006

@<TRIPOS>MOLECULE
ASD01001227
  57   61    0    0    0
SMALL
NO_CHARGES


@<TRIPOS>ATOM
   1 C1            -0.0499     1.3612    -0.4182 C.ar    
   2 C2            -0.1308     0.0841    -0.9704 C.ar    
   3 C3            -1.3318    -0.5882    -1.0084 C.ar    
   4 C4            -2.4790     0.0072    -0.4921 C.ar    
   5 C5            -2.4002     1.2948     0.0658 C.ar    
   6 C6            -1.1787     1.9666     0.1046 C.ar    
   7 N7             1.1778     2.0307    -0.3872 N.3     
   8 C8             2.2395     1.2109    -0.9846 C.3     
   9 C9             3.5314     2.0272    -1.0660 C.3     
  10 C10            3.9366     2.4739     0.3414 C.3     
  11 C11            2.7944     3.2849     0.9596 C.3     
  12 C12            1.5239     2.4321     0.9823 C.3     
  13 N13           -3.6911    -0.6515    -0.5222 N.pl3   
  14 C14           -4.8246    -0.0826    -0.0217 C.2     
  15 C15           -4.8241     1.1714     0.5383 C.2     
  16 C16           -3.6256     1.9095     0.6079 C.2     
  17 O17           -3.6031     3.0258     1.1015 O.2     
  18 C18           -6.1034     1.7572     1.0781 C.3     
  19 C19           -6.1999     1.4770     2.5557 C.ar    
  20 C20           -5.5919     2.3262     3.4613 C.ar    
  21 C21           -5.6805     2.0692     4.8167 C.ar    
  22 C22           -6.3774     0.9633     5.2664 C.ar    
  23 C23           -6.9862     0.1147     4.3608 C.ar    
  24 C24           -6.9013     0.3741     3.0056 C.ar    
  25 C25           -6.0931    -0.8386    -0.0840 C.ar    
  26 C26           -7.1945    -0.3039    -0.7528 C.ar    
  27 C27           -8.3796    -1.0183    -0.8075 C.ar    
  28 C28           -8.4698    -2.2622    -0.1978 C.ar    
  29 C29           -7.3789    -2.7936     0.4655 C.ar    
  30 C30           -6.1917    -2.0931     0.5212 C.ar    
  31 O31           -9.4550    -0.5011    -1.4580 O.3     
  32 H32            0.7565    -0.3823    -1.3724 H       
  33 H33           -1.3837    -1.5772    -1.4392 H       
  34 H34           -1.1159     2.9561     0.5328 H       
  35 H35            2.4064     0.3274    -0.3683 H       
  36 H36            1.9405     0.9033    -1.9866 H       
  37 H37            4.3234     1.4133    -1.4950 H       
  38 H38            3.3692     2.9036    -1.6934 H       
  39 H39            4.1367     1.5978     0.9583 H       
  40 H40            4.8325     3.0921     0.2836 H       
  41 H41            3.0598     3.5697     1.9778 H       
  42 H42            2.6206     4.1812     0.3641 H       
  43 H43            0.7051     3.0116     1.4088 H       
  44 H44            1.6941     1.5430     1.5893 H       
  45 H45           -3.7379    -1.5399    -0.9088 H       
  46 H46           -6.1085     2.8343     0.9114 H       
  47 H47           -6.9537     1.3063     0.5665 H       
  48 H48           -5.0474     3.1901     3.1100 H       
  49 H49           -5.2048     2.7322     5.5242 H       
  50 H50           -6.4460     0.7621     6.3253 H       
  51 H51           -7.5304    -0.7495     4.7121 H       
  52 H52           -7.3769    -0.2889     2.2981 H       
  53 H53           -7.1233     0.6642    -1.2261 H       
  54 H54           -9.3955    -2.8169    -0.2414 H       
  55 H55           -7.4554    -3.7616     0.9382 H       
  56 H56           -5.3416    -2.5109     1.0401 H       
  57 H57           -9.4991    -0.7373    -2.3946 H       
@<TRIPOS>BOND
   1    1    2 ar
   2    1    7 1
   3    1    6 ar
   4    2    3 ar
   5    2   32 1
   6    3    4 ar
   7    3   33 1
   8    4    5 ar
   9    4   13 1
  10    5    6 ar
  11    5   16 1
  12    6   34 1
  13    7    8 1
  14    7   12 1
  15    8    9 1
  16    8   35 1
  17    8   36 1
  18    9   10 1
  19    9   37 1
  20    9   38 1
  21   10   11 1
  22   10   39 1
  23   10   40 1
  24   11   12 1
  25   11   41 1
  26   11   42 1
  27   12   43 1
  28   12   44 1
  29   13   14 1
  30   13   45 1
  31   14   15 2
  32   14   25 1
  33   15   16 1
  34   15   18 1
  35   16   17 2
  36   18   19 1
  37   18   46 1
  38   18   47 1
  39   19   20 ar
  40   19   24 ar
  41   20   21 ar
  42   20   48 1
  43   21   22 ar
  44   21   49 1
  45   22   23 ar
  46   22   50 1
  47   23   24 ar
  48   23   51 1
  49   24   52 1
  50   25   26 ar
  51   25   30 ar
  52   26   27 ar
  53   26   53 1
  54   27   28 ar
  55   27   31 1
  56   28   29 ar
  57   28   54 1
  58   29   30 ar
  59   29   55 1
  60   30   56 1
  61   31   57 1

#	End of record

