#	Name: ASD01908132
#	Creating user name:	WinNT
#	Creation time:	15. 06. 2019 19:54

#	Modifying user name:	WinNT
#	Modification time:	15. 06. 2019 19:54

#	Program:	/corina/corina34_cracker 3.40 0067  02.08.2006

@<TRIPOS>MOLECULE
ASD01908132
  44   47    0    0    0
SMALL
NO_CHARGES


@<TRIPOS>ATOM
   1 S1            -0.0238     1.7050    -0.0349 S.3     
   2 C2             0.0012    -0.0031    -0.0113 C.2     
   3 N3             1.2212    -0.4482    -0.0145 N.2     
   4 C4             2.1899     0.4460    -0.0344 C.2     
   5 C5             1.7373     1.7489    -0.0491 C.2     
   6 C6             2.5526     2.9259    -0.0722 C.1     
   7 N7             3.1993     3.8596    -0.0905 N.1     
   8 N8            -1.1246    -0.8030     0.0089 N.pl3   
   9 C9            -2.3858    -0.2266     0.1291 C.ar    
  10 C10           -3.5207    -1.0249     0.0307 C.ar    
  11 C11           -4.7678    -0.4391     0.1524 C.ar    
  12 C12           -4.8382     0.9308     0.3693 C.ar    
  13 C13           -3.6707     1.6623     0.4564 C.ar    
  14 N14           -2.4944     1.0757     0.3414 N.ar    
  15 N15            5.5182    -0.9485     0.3457 N.pl3   
  16 N16            5.7817     0.1553    -0.4742 N.2     
  17 C17            4.6574     0.7776    -0.7085 C.2     
  18 C18            3.6268     0.0858    -0.0396 C.2     
  19 C19            4.1958    -0.9775     0.6029 C.2     
  20 C20            6.5091    -1.9103     0.8349 C.3     
  21 C21            7.2629    -2.4928    -0.3327 C.ar    
  22 C22            8.4186    -1.8814    -0.7824 C.ar    
  23 C23            9.1115    -2.4133    -1.8526 C.ar    
  24 C24            8.6467    -3.5621    -2.4763 C.ar    
  25 C25            7.4868    -4.1737    -2.0232 C.ar    
  26 C26            6.8007    -3.6410    -0.9490 C.ar    
  27 O27            9.3263    -4.0871    -3.5296 O.3     
  28 C28            8.7895    -5.2712    -4.1227 C.3     
  29 H29           -1.0363    -1.7665    -0.0606 H       
  30 H30           -3.4294    -2.0876    -0.1388 H       
  31 H31           -5.6666    -1.0335     0.0801 H       
  32 H32           -5.7965     1.4189     0.4685 H       
  33 H33           -3.7207     2.7280     0.6247 H       
  34 H34            4.5380     1.6670    -1.3094 H       
  35 H35            3.6792    -1.7088     1.2067 H       
  36 H36            7.2071    -1.4051     1.5025 H       
  37 H37            6.0030    -2.7099     1.3760 H       
  38 H38            8.7798    -0.9869    -0.2967 H       
  39 H39           10.0139    -1.9352    -2.2036 H       
  40 H40            7.1230    -5.0681    -2.5071 H       
  41 H41            5.9004    -4.1194    -0.5930 H       
  42 H42            8.7476    -6.0646    -3.3764 H       
  43 H43            7.7850    -5.0683    -4.4941 H       
  44 H44            9.4264    -5.5840    -4.9501 H       
@<TRIPOS>BOND
   1    1    2 1
   2    1    5 1
   3    2    3 2
   4    2    8 1
   5    3    4 1
   6    4    5 2
   7    4   18 1
   8    5    6 1
   9    6    7 3
  10    8    9 1
  11    8   29 1
  12    9   10 ar
  13    9   14 ar
  14   10   11 ar
  15   10   30 1
  16   11   12 ar
  17   11   31 1
  18   12   13 ar
  19   12   32 1
  20   13   14 ar
  21   13   33 1
  22   15   16 1
  23   15   19 1
  24   15   20 1
  25   16   17 2
  26   17   18 1
  27   17   34 1
  28   18   19 2
  29   19   35 1
  30   20   21 1
  31   20   36 1
  32   20   37 1
  33   21   22 ar
  34   21   26 ar
  35   22   23 ar
  36   22   38 1
  37   23   24 ar
  38   23   39 1
  39   24   25 ar
  40   24   27 1
  41   25   26 ar
  42   25   40 1
  43   26   41 1
  44   27   28 1
  45   28   42 1
  46   28   43 1
  47   28   44 1

#	End of record

