#	Name: ASD01917165
#	Creating user name:	WinNT
#	Creation time:	15. 06. 2019 20:08

#	Modifying user name:	WinNT
#	Modification time:	15. 06. 2019 20:08

#	Program:	/corina/corina34_cracker 3.40 0067  02.08.2006

@<TRIPOS>MOLECULE
ASD01917165
  59   63    0    0    0
SMALL
NO_CHARGES


@<TRIPOS>ATOM
   1 C1            -0.0170     1.3086     0.0937 C.2     
   2 N2             0.0003     0.0195    -0.1692 N.2     
   3 N3            -1.3357    -0.4130    -0.1801 N.pl3   
   4 C4            -2.0928     0.6769     0.0849 C.2     
   5 N5            -1.2852     1.7025     0.2527 N.2     
   6 C6             1.1775     2.1825     0.2024 C.ar    
   7 C7             1.0273     3.5382     0.4864 C.ar    
   8 C8             2.4520     1.6481     0.0263 C.ar    
   9 C9             3.5623     2.4648     0.1281 C.ar    
  10 C10            3.4088     3.8150     0.4054 C.ar    
  11 F11            4.4962     4.6106     0.5043 F       
  12 C12           -1.8150    -1.7746    -0.4299 C.3     
  13 C13           -1.8519    -2.5401     0.8677 C.2     
  14 N14           -2.2633    -3.8235     0.8816 N.am    
  15 O15           -1.5113    -2.0013     1.8995 O.2     
  16 C16           -2.3069    -4.5887     2.1369 C.3     
  17 C17           -3.6942    -5.2258     2.2706 C.3     
  18 N18           -3.9920    -6.0018     1.0594 N.3     
  19 C19           -4.0531    -5.1366    -0.1262 C.3     
  20 C20           -2.6864    -4.4940    -0.3572 C.3     
  21 C21           -5.1656    -6.7241     1.2083 C.ar    
  22 N22           -5.8615    -6.6566     2.3415 N.ar    
  23 C23           -6.9778    -7.3398     2.4900 C.ar    
  24 N24           -7.4527    -8.1138     1.5350 N.ar    
  25 C25           -6.8159    -8.2347     0.3736 C.ar    
  26 C26           -5.6375    -7.5267     0.1730 C.ar    
  27 C27           -3.5696     0.7088     0.1760 C.ar    
  28 C28           -4.2539     1.9165     0.0380 C.ar    
  29 C29           -5.6308     1.9397     0.1239 C.ar    
  30 C30           -6.3326     0.7685     0.3469 C.ar    
  31 C31           -5.6597    -0.4323     0.4851 C.ar    
  32 C32           -4.2834    -0.4696     0.3945 C.ar    
  33 F33            4.7986     1.9473    -0.0421 F       
  34 C34            2.1419     4.3492     0.5869 C.ar    
  35 F35            1.9967     5.6651     0.8564 F       
  36 O36           -7.3124    -9.0333    -0.6026 O.3     
  37 C37           -8.5317    -9.7226    -0.3192 C.3     
  38 H38            0.0410     3.9549     0.6276 H       
  39 H39            2.5723     0.5967    -0.1893 H       
  40 H40           -2.8172    -1.7345    -0.8566 H       
  41 H41           -1.1428    -2.2742    -1.1275 H       
  42 H42           -1.5461    -5.3690     2.1166 H       
  43 H43           -2.1280    -3.9207     2.9794 H       
  44 H44           -3.7093    -5.8855     3.1382 H       
  45 H45           -4.4432    -4.4437     2.3948 H       
  46 H46           -4.3286    -5.7317    -0.9969 H       
  47 H47           -4.7971    -4.3557     0.0314 H       
  48 H48           -2.7564    -3.7650    -1.1645 H       
  49 H49           -1.9592    -5.2634    -0.6168 H       
  50 H50           -7.5194    -7.2637     3.4213 H       
  51 H51           -5.0969    -7.6035    -0.7588 H       
  52 H52           -3.7071     2.8316    -0.1354 H       
  53 H53           -6.1618     2.8741     0.0173 H       
  54 H54           -7.4103     0.7918     0.4138 H       
  55 H55           -6.2132    -1.3432     0.6597 H       
  56 H56           -3.7592    -1.4077     0.5025 H       
  57 H57           -9.3175    -8.9981    -0.1056 H       
  58 H58           -8.8175   -10.3249    -1.1816 H       
  59 H59           -8.3902   -10.3707     0.5457 H       
@<TRIPOS>BOND
   1    1    2 2
   2    1    6 1
   3    1    5 1
   4    2    3 1
   5    3    4 1
   6    3   12 1
   7    4    5 2
   8    4   27 1
   9    6    7 ar
  10    6    8 ar
  11    7   34 ar
  12    7   38 1
  13    8    9 ar
  14    8   39 1
  15    9   10 ar
  16    9   33 1
  17   10   34 ar
  18   10   11 1
  19   12   13 1
  20   12   40 1
  21   12   41 1
  22   13   14 am
  23   13   15 2
  24   14   16 1
  25   14   20 1
  26   16   17 1
  27   16   42 1
  28   16   43 1
  29   17   18 1
  30   17   44 1
  31   17   45 1
  32   18   19 1
  33   18   21 1
  34   19   20 1
  35   19   46 1
  36   19   47 1
  37   20   48 1
  38   20   49 1
  39   21   22 ar
  40   21   26 ar
  41   22   23 ar
  42   23   24 ar
  43   23   50 1
  44   24   25 ar
  45   25   26 ar
  46   25   36 1
  47   26   51 1
  48   27   28 ar
  49   27   32 ar
  50   28   29 ar
  51   28   52 1
  52   29   30 ar
  53   29   53 1
  54   30   31 ar
  55   30   54 1
  56   31   32 ar
  57   31   55 1
  58   32   56 1
  59   34   35 1
  60   36   37 1
  61   37   57 1
  62   37   58 1
  63   37   59 1

#	End of record

