#	Name: ASD03930132
#	Creating user name:	WinNT
#	Creation time:	15. 06. 2019 20:47

#	Modifying user name:	WinNT
#	Modification time:	15. 06. 2019 20:47

#	Program:	/corina/corina34_cracker 3.40 0067  02.08.2006

@<TRIPOS>MOLECULE
ASD03930132
  23   23    0    0    0
SMALL
NO_CHARGES


@<TRIPOS>ATOM
   1 C1            -0.0189     1.5392     0.0105 C.3     
   2 C2             0.0021    -0.0041     0.0020 C.3     
   3 C3             1.3636    -0.3205     0.6565 C.3     
   4 C4             2.2309     0.8866     0.3700 C.ar    
   5 C5             3.6061     1.0379     0.4299 C.ar    
   6 C6             4.1861     2.2533     0.1198 C.ar    
   7 C7             3.3907     3.3225    -0.2516 C.ar    
   8 C8             2.0193     3.1728    -0.3117 C.ar    
   9 C9             1.4365     1.9552    -0.0012 C.ar    
  10 N10           -1.1020    -0.5457     0.8055 N.3     
  11 Br11           6.0644     2.4549     0.2038 Br      
  12 H12           -0.5269     1.9155    -0.8774 H       
  13 H13           -0.5098     1.9059     0.9120 H       
  14 H14           -0.0357    -0.3865    -1.0180 H       
  15 H15            1.2445    -0.4540     1.7317 H       
  16 H16            1.7995    -1.2140     0.2096 H       
  17 H17            4.2273     0.2035     0.7202 H       
  18 H18            3.8418     4.2734    -0.4940 H       
  19 H19            1.3989     4.0079    -0.6017 H       
  20 H20           -1.0908    -1.5546     0.8018 H       
  21 H21           -1.0729    -0.1872     1.7483 H       
  22 Br22          11.0644     9.2734     6.7483 Br      
  23 H23           11.0644    10.7834     6.7483 H       
@<TRIPOS>BOND
   1    1    2 1
   2    1    9 1
   3    1   12 1
   4    1   13 1
   5    2    3 1
   6    2   10 1
   7    2   14 1
   8    3    4 1
   9    3   15 1
  10    3   16 1
  11    4    5 ar
  12    4    9 ar
  13    5    6 ar
  14    5   17 1
  15    6    7 ar
  16    6   11 1
  17    7    8 ar
  18    7   18 1
  19    8    9 ar
  20    8   19 1
  21   10   20 1
  22   10   21 1
  23   22   23 1

#	End of record

