#	Name: ASD01882711
#	Creating user name:	WinNT
#	Creation time:	15. 06. 2019 19:45

#	Modifying user name:	WinNT
#	Modification time:	15. 06. 2019 19:45

#	Program:	/corina/corina34_cracker 3.40 0067  02.08.2006

@<TRIPOS>MOLECULE
ASD01882711
  58   62    0    0    0
SMALL
NO_CHARGES


@<TRIPOS>ATOM
   1 N1            -0.0159     1.3193     0.0093 N.ar    
   2 C2             0.0021    -0.0041     0.0020 C.ar    
   3 C3             1.2041    -0.7042    -0.0128 C.ar    
   4 C4             2.3966    -0.0013    -0.0204 C.ar    
   5 C5             1.1037     2.0274     0.0024 C.ar    
   6 N6             1.3603     3.3924     0.0068 N.am    
   7 C7             2.3438     1.3866    -0.0129 C.ar    
   8 N8             3.3170     2.3850    -0.0170 N.am    
   9 C9             2.6932     3.5785    -0.0051 C.2     
  10 C10            0.3492     4.4524     0.0216 C.3     
  11 C11            4.7664     2.1725    -0.0316 C.3     
  12 C12            5.2575     2.1059    -1.4791 C.3     
  13 C13            4.9274     3.4195    -2.1907 C.3     
  14 C14            6.7713     1.8840    -1.4944 C.3     
  15 C15            4.5650     0.9474    -2.1997 C.3     
  16 N16           -1.1999    -0.7059     0.0097 N.3     
  17 O17            3.2500     4.6605    -0.0051 O.2     
  18 C18           -3.6441    -0.6009    -0.0901 C.3     
  19 N19           -3.6673    -1.5183     1.0685 N.am    
  20 C20           -2.4964    -1.4285     1.9678 C.3     
  21 C21           -1.2411    -1.6658     1.1182 C.3     
  22 C22           -2.3453     0.2124     0.0256 C.3     
  23 C23           -2.4417     0.0038     2.5181 C.3     
  24 C24           -2.3564     0.9855     1.3469 C.3     
  25 C25           -4.6835    -2.3754     1.2901 C.2     
  26 C26           -5.8261    -2.4208     0.3592 C.2     
  27 O27           -4.6581    -3.1114     2.2578 O.2     
  28 N28           -5.9385    -1.6564    -0.7212 N.2     
  29 N29           -6.9762    -1.7893    -1.4486 N.2     
  30 S30           -7.9114    -2.8882    -0.8451 S.3     
  31 C31           -6.9071    -3.2667     0.5002 C.2     
  32 H32            1.2069    -1.7842    -0.0179 H       
  33 H33            3.3443    -0.5191    -0.0315 H       
  34 H34            0.1080     4.7102     1.0529 H       
  35 H35            0.7376     5.3322    -0.4915 H       
  36 H36           -0.5503     4.1036    -0.4856 H       
  37 H37            5.2598     2.9978     0.4818 H       
  38 H38            5.0016     1.2367     0.4754 H       
  39 H39            5.4207     4.2448    -1.6773 H       
  40 H40            5.2772     3.3720    -3.2219 H       
  41 H41            3.8489     3.5775    -2.1798 H       
  42 H42            7.0064     0.9482    -0.9874 H       
  43 H43            7.1211     1.8365    -2.5256 H       
  44 H44            7.2646     2.7093    -0.9810 H       
  45 H45            3.4865     1.1055    -2.1889 H       
  46 H46            4.9148     0.8999    -3.2310 H       
  47 H47            4.8002     0.0116    -1.6928 H       
  48 H48           -3.6464    -1.1715    -1.0188 H       
  49 H49           -4.5064     0.0650    -0.0570 H       
  50 H50           -2.5661    -2.1622     2.7708 H       
  51 H51           -1.2607    -2.6797     0.7186 H       
  52 H52           -0.3543    -1.5398     1.7393 H       
  53 H53           -2.2710     0.9049    -0.8129 H       
  54 H54           -3.3418     0.2059     3.0987 H       
  55 H55           -1.5633     0.1169     3.1535 H       
  56 H56           -1.4418     1.5724     1.4314 H       
  57 H57           -3.2180     1.6528     1.3695 H       
  58 H58           -7.0847    -3.9942     1.2784 H       
@<TRIPOS>BOND
   1    1    2 ar
   2    1    5 ar
   3    2    3 ar
   4    2   16 1
   5    3    4 ar
   6    3   32 1
   7    4    7 ar
   8    4   33 1
   9    5    7 ar
  10    5    6 1
  11    6    9 am
  12    6   10 1
  13    7    8 1
  14    8    9 am
  15    8   11 1
  16    9   17 2
  17   10   34 1
  18   10   35 1
  19   10   36 1
  20   11   12 1
  21   11   37 1
  22   11   38 1
  23   12   13 1
  24   12   14 1
  25   12   15 1
  26   13   39 1
  27   13   40 1
  28   13   41 1
  29   14   42 1
  30   14   43 1
  31   14   44 1
  32   15   45 1
  33   15   46 1
  34   15   47 1
  35   16   22 1
  36   16   21 1
  37   18   19 1
  38   18   22 1
  39   18   48 1
  40   18   49 1
  41   19   20 1
  42   19   25 am
  43   20   21 1
  44   20   23 1
  45   20   50 1
  46   21   51 1
  47   21   52 1
  48   22   24 1
  49   22   53 1
  50   23   24 1
  51   23   54 1
  52   23   55 1
  53   24   56 1
  54   24   57 1
  55   25   26 1
  56   25   27 2
  57   26   28 1
  58   26   31 2
  59   28   29 2
  60   29   30 1
  61   30   31 1
  62   31   58 1

#	End of record

