#	Name: ASD08830047
#	Creating user name:	WinNT
#	Creation time:	15. 06. 2019 21:19

#	Modifying user name:	WinNT
#	Modification time:	15. 06. 2019 21:19

#	Program:	/corina/corina34_cracker 3.40 0067  02.08.2006

@<TRIPOS>MOLECULE
ASD08830047
  44   46    0    0    0
SMALL
NO_CHARGES


@<TRIPOS>ATOM
   1 C1            -0.0172     1.4144     0.0098 C.ar    
   2 C2             0.0021    -0.0041     0.0020 C.ar    
   3 C3             1.1959     2.1287     0.0021 C.ar    
   4 C4             2.3769     1.4621    -0.0133 C.ar    
   5 C5             2.4108     0.0535    -0.0217 C.ar    
   6 C6             1.2315    -0.6786    -0.0139 C.ar    
   7 C7             3.7045    -0.6459    -0.0393 C.2     
   8 C8             4.9879     0.1439    -0.0483 C.3     
   9 C9             6.1781    -0.8173    -0.0663 C.3     
  10 N10            7.4292    -0.0475    -0.0751 N.3     
  11 O11            3.7384    -1.8581    -0.0465 O.2     
  12 C12            8.5873    -0.9229     0.1458 C.3     
  13 C13           -1.2511     2.0843     0.0194 C.ar    
  14 C14           -1.2141    -0.7105     0.0099 C.ar    
  15 C15           -2.3907    -0.0259     0.0249 C.ar    
  16 C16           -2.4091     1.3672     0.0210 C.ar    
  17 C17            9.8534    -0.0731     0.2754 C.3     
  18 C18           10.0458     0.7460    -1.0039 C.3     
  19 C19            8.8053     1.6129    -1.2369 C.3     
  20 C20            7.5696     0.7142    -1.3227 C.3     
  21 C21           11.2763     1.6431    -0.8565 C.3     
  22 H22            1.1860     3.2087     0.0080 H       
  23 H23            3.3029     2.0179    -0.0195 H       
  24 H24            1.2604    -1.7581    -0.0203 H       
  25 H25            5.0187     0.7770    -0.9350 H       
  26 H26            5.0375     0.7668     0.8448 H       
  27 H27            6.1473    -1.4504     0.8205 H       
  28 H28            6.1285    -1.4403    -0.9594 H       
  29 H29            8.4397    -1.4965     1.0608 H       
  30 H30            8.6928    -1.6054    -0.6975 H       
  31 H31           -1.2819     3.1638     0.0257 H       
  32 H32           -1.2146    -1.7904     0.0038 H       
  33 H33           -3.3233    -0.5705     0.0306 H       
  34 H34           -3.3559     1.8865     0.0335 H       
  35 H35            9.7543     0.6001     1.1270 H       
  36 H36           10.7150    -0.7240     0.4238 H       
  37 H37           10.1838     0.0728    -1.8500 H       
  38 H38            8.6897     2.3126    -0.4091 H       
  39 H39            8.9181     2.1665    -2.1690 H       
  40 H40            7.6799     0.0241    -2.1591 H       
  41 H41            6.6828     1.3296    -1.4742 H       
  42 H42           12.1579     1.0254    -0.6851 H       
  43 H43           11.4124     2.2257    -1.7676 H       
  44 H44           11.1353     2.3174    -0.0118 H       
@<TRIPOS>BOND
   1    1    2 ar
   2    1    3 ar
   3    1   13 ar
   4    2   14 ar
   5    2    6 ar
   6    3    4 ar
   7    3   22 1
   8    4    5 ar
   9    4   23 1
  10    5    6 ar
  11    5    7 1
  12    6   24 1
  13    7    8 1
  14    7   11 2
  15    8    9 1
  16    8   25 1
  17    8   26 1
  18    9   10 1
  19    9   27 1
  20    9   28 1
  21   10   12 1
  22   10   20 1
  23   12   17 1
  24   12   29 1
  25   12   30 1
  26   13   16 ar
  27   13   31 1
  28   14   15 ar
  29   14   32 1
  30   15   16 ar
  31   15   33 1
  32   16   34 1
  33   17   18 1
  34   17   35 1
  35   17   36 1
  36   18   19 1
  37   18   21 1
  38   18   37 1
  39   19   20 1
  40   19   38 1
  41   19   39 1
  42   20   40 1
  43   20   41 1
  44   21   42 1
  45   21   43 1
  46   21   44 1

#	End of record

