#	Name: ASD02030219
#	Creating user name:	WinNT
#	Creation time:	15. 06. 2019 20:14

#	Modifying user name:	WinNT
#	Modification time:	15. 06. 2019 20:14

#	Program:	/corina/corina34_cracker 3.40 0067  02.08.2006

@<TRIPOS>MOLECULE
ASD02030219
  62   65    0    0    0
SMALL
NO_CHARGES


@<TRIPOS>ATOM
   1 N1            -0.9986     2.1313    -1.3673 N.am    
   2 C2            -0.9301     0.7051    -1.7150 C.3     
   3 C3            -1.0899    -0.1203    -0.4322 C.3     
   4 N4            -2.2633     0.3744     0.3014 N.am    
   5 C5            -2.3317     1.8007     0.6491 C.3     
   6 C6            -2.1694     2.6249    -0.6288 C.3     
   7 C7            -0.0028     2.9706    -1.7146 C.2     
   8 C8             1.2197     2.4417    -2.3559 C.2     
   9 N9             2.3081     3.1279    -2.6306 N.2     
  10 N10            1.4175     1.1723    -2.7563 N.2     
  11 C11            2.6189     1.1097    -3.2715 C.2     
  12 N12            3.1638     2.3407    -3.1858 N.pl3   
  13 C13            4.4442     2.7022    -3.6262 C.ar    
  14 O14           -0.1099     4.1624    -1.5005 O.2     
  15 C15           -3.2590    -0.4649     0.6488 C.2     
  16 C16           -3.1763    -1.8976     0.2928 C.ar    
  17 O17           -4.2251    -0.0439     1.2546 O.2     
  18 C18            4.8869     4.0095    -3.4787 C.ar    
  19 C19            6.1505     4.3630    -3.9142 C.ar    
  20 C20            6.9728     3.4148    -4.4969 C.ar    
  21 C21            6.5334     2.1120    -4.6451 C.ar    
  22 C22            5.2746     1.7519    -4.2058 C.ar    
  23 C23           -3.6855     2.1080     1.2923 C.3     
  24 Cl24           6.7057     5.9975    -3.7304 Cl      
  25 C25           -4.3379    -2.6179     0.0148 C.ar    
  26 C26           -4.2526    -3.9595    -0.3184 C.ar    
  27 C27           -3.0142    -4.5839    -0.3745 C.ar    
  28 C28           -1.8617    -3.8710    -0.0990 C.ar    
  29 C29           -1.9348    -2.5328     0.2283 C.ar    
  30 O30           -5.3820    -4.6650    -0.5901 O.3     
  31 C31           -5.2200    -6.0444    -0.9265 C.3     
  32 C32           -6.5909    -6.6677    -1.1972 C.3     
  33 C33           -6.4099    -8.1089    -1.6778 C.3     
  34 C34           -7.4180    -6.6594     0.0899 C.3     
  35 H35           -1.7326     0.4592    -2.4105 H       
  36 H36            0.0343     0.4861    -2.1732 H       
  37 H37           -1.2342    -1.1699    -0.6881 H       
  38 H38           -0.1990    -0.0112     0.1863 H       
  39 H39           -1.5293     2.0466     1.3446 H       
  40 H40           -2.0252     3.6743    -0.3714 H       
  41 H41           -3.0589     2.5168    -1.2493 H       
  42 H42            3.0899     0.2311    -3.6869 H       
  43 H43            4.2448     4.7497    -3.0245 H       
  44 H44            7.9595     3.6928    -4.8368 H       
  45 H45            7.1772     1.3743    -5.1009 H       
  46 H46            4.9326     0.7341    -4.3218 H       
  47 H47           -3.7678     1.5737     2.2387 H       
  48 H48           -3.7674     3.1800     1.4719 H       
  49 H49           -4.4858     1.7894     0.6243 H       
  50 H50           -5.3009    -2.1310     0.0594 H       
  51 H51           -2.9505    -5.6304    -0.6338 H       
  52 H52           -0.9010    -4.3625    -0.1440 H       
  53 H53           -1.0327    -1.9789     0.4424 H       
  54 H54           -4.5993    -6.1304    -1.8184 H       
  55 H55           -4.7406    -6.5665    -0.0984 H       
  56 H56           -7.1071    -6.0909    -1.9646 H       
  57 H57           -5.8936    -8.6857    -0.9105 H       
  58 H58           -7.3865    -8.5529    -1.8707 H       
  59 H59           -5.8206    -8.1148    -2.5948 H       
  60 H60           -6.9017    -7.2362     0.8573 H       
  61 H61           -7.5469    -5.6326     0.4324 H       
  62 H62           -8.3946    -7.1034    -0.1029 H       
@<TRIPOS>BOND
   1    1    2 1
   2    1    7 am
   3    1    6 1
   4    2    3 1
   5    2   35 1
   6    2   36 1
   7    3    4 1
   8    3   37 1
   9    3   38 1
  10    4    5 1
  11    4   15 am
  12    5    6 1
  13    5   23 1
  14    5   39 1
  15    6   40 1
  16    6   41 1
  17    7    8 1
  18    7   14 2
  19    8    9 2
  20    8   10 1
  21    9   12 1
  22   10   11 2
  23   11   12 1
  24   11   42 1
  25   12   13 1
  26   13   18 ar
  27   13   22 ar
  28   15   16 1
  29   15   17 2
  30   16   25 ar
  31   16   29 ar
  32   18   19 ar
  33   18   43 1
  34   19   20 ar
  35   19   24 1
  36   20   21 ar
  37   20   44 1
  38   21   22 ar
  39   21   45 1
  40   22   46 1
  41   23   47 1
  42   23   48 1
  43   23   49 1
  44   25   26 ar
  45   25   50 1
  46   26   27 ar
  47   26   30 1
  48   27   28 ar
  49   27   51 1
  50   28   29 ar
  51   28   52 1
  52   29   53 1
  53   30   31 1
  54   31   32 1
  55   31   54 1
  56   31   55 1
  57   32   33 1
  58   32   34 1
  59   32   56 1
  60   33   57 1
  61   33   58 1
  62   33   59 1
  63   34   60 1
  64   34   61 1
  65   34   62 1

#	End of record

