#	Name: ASD04882541
#	Creating user name:	WinNT
#	Creation time:	15. 06. 2019 20:55

#	Modifying user name:	WinNT
#	Modification time:	15. 06. 2019 20:55

#	Program:	/corina/corina34_cracker 3.40 0067  02.08.2006

@<TRIPOS>MOLECULE
ASD04882541
  90   95    0    0    0
SMALL
NO_CHARGES


@<TRIPOS>ATOM
   1 C1             0.9219     1.5008    -1.8121 C.ar    
   2 C2             1.0679     0.1157    -1.9285 C.ar    
   3 C3            -0.0540    -0.7052    -1.9359 C.ar    
   4 C4            -1.3129    -0.1571    -1.8290 C.ar    
   5 C5            -1.4660     1.2273    -1.7124 C.ar    
   6 C6            -0.3393     2.0544    -1.6990 C.ar    
   7 N7             2.3388    -0.4428    -2.0377 N.3     
   8 C8             2.6022    -1.3730    -0.9309 C.3     
   9 C9             2.5110    -1.1105    -3.3354 C.3     
  10 C10            3.9424    -1.6404    -3.4475 C.3     
  11 N11            4.2057    -2.5707    -2.3408 N.3     
  12 C12            4.0336    -1.9030    -1.0431 C.3     
  13 C13           -2.8147     1.8143    -1.5984 C.2     
  14 O14           -2.9469     3.0188    -1.4970 O.2     
  15 N15           -3.9002     1.0155    -1.6068 N.am    
  16 N16            2.0536     2.3269    -1.8044 N.am    
  17 C17            5.4805    -3.1309    -2.4503 C.ar    
  18 C18            2.0294     3.4967    -1.1354 C.2     
  19 C19            3.2516     4.3148    -1.0370 C.2     
  20 C20            5.6285    -4.5070    -2.5661 C.ar    
  21 O21            0.9992     3.8772    -0.6129 O.2     
  22 N22            4.4685     4.0174    -1.5682 N.2     
  23 C23            5.2928     4.9771    -1.2721 C.2     
  24 O24            4.6482     5.9076    -0.5541 O.3     
  25 C25            3.3738     5.5129    -0.4028 C.2     
  26 C26           -5.2394     1.5984    -1.4936 C.3     
  27 C27           -6.2701     0.4996    -1.5283 C.ar    
  28 C28            6.7446     5.0348    -1.6722 C.3     
  29 C29            7.1938     6.2174    -2.5328 C.3     
  30 C30            7.6025     6.1440    -1.0603 C.3     
  31 C31            6.8906    -5.0576    -2.6746 C.ar    
  32 C32            8.0060    -4.2405    -2.6677 C.ar    
  33 C33            7.8622    -2.8698    -2.5526 C.ar    
  34 C34            6.6031    -2.3123    -2.4495 C.ar    
  35 C35            4.4135    -5.3984    -2.5727 C.3     
  36 C36           -6.6829    -0.0981    -0.3525 C.ar    
  37 C37           -7.6285    -1.1063    -0.3843 C.ar    
  38 C38           -8.1613    -1.5161    -1.5920 C.ar    
  39 C39           -7.7491    -0.9176    -2.7681 C.ar    
  40 C40           -6.8070     0.0932    -2.7359 C.ar    
  41 C41           -8.0778    -1.7587     0.8977 C.3     
  42 N42           -9.2318    -1.0292     1.4400 N.3     
  43 C43           -9.8445    -1.7661     2.5534 C.3     
  44 C44           -8.8499     0.3276     1.8536 C.3     
  45 C45          -10.1083     1.1788     2.0344 C.3     
  46 C46          -10.6582    -2.9388     2.0025 C.3     
  47 H47            0.0619    -1.7752    -2.0259 H       
  48 H48           -2.1825    -0.7974    -1.8358 H       
  49 H49           -0.4545     3.1245    -1.6086 H       
  50 H50            2.4806    -0.8521     0.0188 H       
  51 H51            1.9010    -2.2061    -0.9815 H       
  52 H52            1.8088    -1.9405    -3.4132 H       
  53 H53            2.3229    -0.3981    -4.1387 H       
  54 H54            4.0640    -2.1614    -4.3972 H       
  55 H55            4.6436    -0.8074    -3.3970 H       
  56 H56            4.7358    -1.0729    -0.9652 H       
  57 H57            4.2216    -2.6153    -0.2398 H       
  58 H58           -3.7947     0.0547    -1.6877 H       
  59 H59            2.8545     2.0570    -2.2805 H       
  60 H60            2.5955     6.0421     0.1268 H       
  61 H61           -5.3204     2.1429    -0.5528 H       
  62 H62           -5.4094     2.2824    -2.3251 H       
  63 H63            7.2211     4.0712    -1.8528 H       
  64 H64            7.9660     6.0319    -3.2794 H       
  65 H65            6.4392     6.9537    -2.8096 H       
  66 H66            7.1169     6.8320    -0.3683 H       
  67 H67            8.6437     5.9103    -0.8380 H       
  68 H68            7.0064    -6.1276    -2.7647 H       
  69 H69            8.9917    -4.6737    -2.7521 H       
  70 H70            8.7355    -2.2344    -2.5472 H       
  71 H71            6.4915    -1.2418    -2.3600 H       
  72 H72            4.0672    -5.5330    -3.5974 H       
  73 H73            4.6716    -6.3677    -2.1461 H       
  74 H74            3.6227    -4.9393    -1.9793 H       
  75 H75           -6.2666     0.2221     0.5912 H       
  76 H76           -8.8994    -2.3041    -1.6170 H       
  77 H77           -8.1652    -1.2381    -3.7118 H       
  78 H78           -6.4850     0.5608    -3.6546 H       
  79 H79           -8.3618    -2.7922     0.6993 H       
  80 H80           -7.2625    -1.7383     1.6209 H       
  81 H81           -9.0630    -2.1440     3.2127 H       
  82 H82          -10.5008    -1.0995     3.1128 H       
  83 H83           -8.3047     0.2802     2.7962 H       
  84 H84           -8.2152     0.7754     1.0889 H       
  85 H85          -10.6448     1.2400     1.0876 H       
  86 H86          -10.7508     0.7221     2.7872 H       
  87 H87           -9.8259     2.1808     2.3574 H       
  88 H88          -11.3753    -2.5706     1.2688 H       
  89 H89           -9.9876    -3.6549     1.5274 H       
  90 H90          -11.1913    -3.4264     2.8186 H       
@<TRIPOS>BOND
   1    1    2 ar
   2    1   16 1
   3    1    6 ar
   4    2    3 ar
   5    2    7 1
   6    3    4 ar
   7    3   47 1
   8    4    5 ar
   9    4   48 1
  10    5    6 ar
  11    5   13 1
  12    6   49 1
  13    7    8 1
  14    7    9 1
  15    8   12 1
  16    8   50 1
  17    8   51 1
  18    9   10 1
  19    9   52 1
  20    9   53 1
  21   10   11 1
  22   10   54 1
  23   10   55 1
  24   11   12 1
  25   11   17 1
  26   12   56 1
  27   12   57 1
  28   13   14 2
  29   13   15 am
  30   15   26 1
  31   15   58 1
  32   16   18 am
  33   16   59 1
  34   17   20 ar
  35   17   34 ar
  36   18   19 1
  37   18   21 2
  38   19   22 1
  39   19   25 2
  40   20   31 ar
  41   20   35 1
  42   22   23 2
  43   23   24 1
  44   23   28 1
  45   24   25 1
  46   25   60 1
  47   26   27 1
  48   26   61 1
  49   26   62 1
  50   27   36 ar
  51   27   40 ar
  52   28   29 1
  53   28   30 1
  54   28   63 1
  55   29   30 1
  56   29   64 1
  57   29   65 1
  58   30   66 1
  59   30   67 1
  60   31   32 ar
  61   31   68 1
  62   32   33 ar
  63   32   69 1
  64   33   34 ar
  65   33   70 1
  66   34   71 1
  67   35   72 1
  68   35   73 1
  69   35   74 1
  70   36   37 ar
  71   36   75 1
  72   37   38 ar
  73   37   41 1
  74   38   39 ar
  75   38   76 1
  76   39   40 ar
  77   39   77 1
  78   40   78 1
  79   41   42 1
  80   41   79 1
  81   41   80 1
  82   42   43 1
  83   42   44 1
  84   43   46 1
  85   43   81 1
  86   43   82 1
  87   44   45 1
  88   44   83 1
  89   44   84 1
  90   45   85 1
  91   45   86 1
  92   45   87 1
  93   46   88 1
  94   46   89 1
  95   46   90 1

#	End of record

