#	Name: ASD01912305
#	Creating user name:	WinNT
#	Creation time:	15. 06. 2019 19:59

#	Modifying user name:	WinNT
#	Modification time:	15. 06. 2019 19:59

#	Program:	/corina/corina34_cracker 3.40 0067  02.08.2006

@<TRIPOS>MOLECULE
ASD01912305
  50   53    0    0    0
SMALL
NO_CHARGES


@<TRIPOS>ATOM
   1 C1            -0.0167     1.3791     0.0096 C.ar    
   2 C2             0.0021    -0.0041     0.0020 C.ar    
   3 C3             1.2202    -0.6700    -0.0132 C.ar    
   4 C4             2.3829     0.0790    -0.0202 C.ar    
   5 C5             2.2916     1.4735    -0.0119 C.ar    
   6 N6             1.1034     2.0714     0.0026 N.ar    
   7 C7             3.4855     2.2642    -0.0190 C.1     
   8 C8             4.4642     2.9125    -0.0248 C.1     
   9 C9             5.6581     3.7033    -0.0320 C.2     
  10 N10            5.4112     7.5517    -1.1198 N.am    
  11 C11            6.7206     6.8901    -1.1864 C.3     
  12 C12            6.8259     5.8862    -0.0314 C.3     
  13 C13            5.5764     5.0331    -0.0241 C.2     
  14 C14            4.2319     5.7267    -0.0070 C.3     
  15 C15            4.1917     6.7346    -1.1626 C.3     
  16 S16            5.3111     9.1997    -0.9910 S.o2    
  17 O17            4.0459     9.4805    -0.4083 O.2     
  18 O18            6.5406     9.6334    -0.4258 O.2     
  19 C19            5.2599     9.8486    -2.6284 C.ar    
  20 C20            4.0428    10.0290    -3.2603 C.ar    
  21 C21            3.9968    10.5374    -4.5426 C.ar    
  22 C22            5.1793    10.8691    -5.2006 C.ar    
  23 C23            6.4025    10.6853    -4.5593 C.ar    
  24 C24            6.4366    10.1812    -3.2749 C.ar    
  25 S25            5.6142    12.3276    -8.7958 S.3     
  26 N26            4.1084    12.0967    -8.4391 N.2     
  27 N27            4.0178    11.6210    -7.2596 N.2     
  28 C28            5.1362    11.4157    -6.5797 C.2     
  29 C29            6.2438    11.7664    -7.2956 C.2     
  30 C30           -1.3378     2.1040     0.0198 C.3     
  31 H31           -0.9231    -0.5612     0.0082 H       
  32 H32            1.2589    -1.7493    -0.0190 H       
  33 H33            3.3474    -0.4068    -0.0317 H       
  34 H34            6.6247     3.2217    -0.0438 H       
  35 H35            6.8169     6.3652    -2.1368 H       
  36 H36            7.5114     7.6349    -1.0963 H       
  37 H37            7.7016     5.2531    -0.1741 H       
  38 H38            6.9099     6.4220     0.9141 H       
  39 H39            3.4378     4.9909    -0.1340 H       
  40 H40            4.1006     6.2492     0.9405 H       
  41 H41            3.3175     7.3771    -1.0569 H       
  42 H42            4.1427     6.2007    -2.1116 H       
  43 H43            3.1268     9.7713    -2.7495 H       
  44 H44            3.0460    10.6776    -5.0353 H       
  45 H45            7.3221    10.9408    -5.0648 H       
  46 H46            7.3839    10.0425    -2.7752 H       
  47 H47            7.2781    11.7057    -6.9907 H       
  48 H48           -1.6515     2.2732     1.0499 H       
  49 H49           -1.2307     3.0618    -0.4894 H       
  50 H50           -2.0869     1.5014    -0.4938 H       
@<TRIPOS>BOND
   1    1    2 ar
   2    1    6 ar
   3    1   30 1
   4    2    3 ar
   5    2   31 1
   6    3    4 ar
   7    3   32 1
   8    4    5 ar
   9    4   33 1
  10    5    6 ar
  11    5    7 1
  12    7    8 3
  13    8    9 1
  14    9   13 2
  15    9   34 1
  16   10   11 1
  17   10   15 1
  18   10   16 am
  19   11   12 1
  20   11   35 1
  21   11   36 1
  22   12   13 1
  23   12   37 1
  24   12   38 1
  25   13   14 1
  26   14   15 1
  27   14   39 1
  28   14   40 1
  29   15   41 1
  30   15   42 1
  31   16   17 2
  32   16   18 2
  33   16   19 1
  34   19   20 ar
  35   19   24 ar
  36   20   21 ar
  37   20   43 1
  38   21   22 ar
  39   21   44 1
  40   22   23 ar
  41   22   28 1
  42   23   24 ar
  43   23   45 1
  44   24   46 1
  45   25   26 1
  46   25   29 1
  47   26   27 2
  48   27   28 1
  49   28   29 2
  50   29   47 1
  51   30   48 1
  52   30   49 1
  53   30   50 1

#	End of record

