#	Name: ASD01885138
#	Creating user name:	WinNT
#	Creation time:	15. 06. 2019 19:49

#	Modifying user name:	WinNT
#	Modification time:	15. 06. 2019 19:49

#	Program:	/corina/corina34_cracker 3.40 0067  02.08.2006

@<TRIPOS>MOLECULE
ASD01885138
  51   56    0    0    0
SMALL
NO_CHARGES


@<TRIPOS>ATOM
   1 C1             1.5484     1.4579    -1.0838 C.2     
   2 C2             1.6033     0.0534    -1.1156 C.2     
   3 C3             1.2066    -0.6546    -0.0130 C.2     
   4 C4             0.7515     0.0354     1.1313 C.2     
   5 C5             0.7072     1.3822     1.1398 C.2     
   6 N6             1.1002     2.0975     0.0463 N.pl3   
   7 C7             1.1653     3.4314    -0.2309 C.2     
   8 N8             1.6240     3.5578    -1.4483 N.2     
   9 N9             1.8580     2.4009    -1.9606 N.2     
  10 C10            0.7789     4.5542     0.6969 C.3     
  11 N11            1.2514    -2.0467    -0.0204 N.pl3   
  12 C12            2.5313    -2.7601    -0.1465 C.3     
  13 C13            2.6246    -3.7953     0.9796 C.3     
  14 N14            1.4312    -4.6513     0.9536 N.3     
  15 C15            0.2121    -3.8741     1.2140 C.3     
  16 C16            0.0205    -2.8422     0.1037 C.3     
  17 C17            1.9960     4.9749     1.5231 C.3     
  18 Cl18           2.1662    -0.7725    -2.5350 Cl      
  19 C19            1.8393     6.1850     2.4461 C.3     
  20 C20            1.9239     4.7769     3.0385 C.3     
  21 C21            1.5544    -5.7151     1.8639 C.2     
  22 C22            1.2068    -7.1620     3.6042 C.ar    
  23 O23            2.2959    -7.5187     2.8945 O.3     
  24 C24            2.5036    -6.6668     1.8706 C.2     
  25 C25           -1.0646    -5.9447     4.6402 C.ar    
  26 C26           -0.5440    -7.0841     5.2368 C.ar    
  27 C27            0.5823    -7.6931     4.7265 C.ar    
  28 C28            0.6746    -6.0081     3.0052 C.ar    
  29 C29           -0.4657    -5.4069     3.5348 C.ar    
  30 H30            0.4371    -0.5184     2.0035 H       
  31 H31            0.3573     1.9003     2.0205 H       
  32 H32            0.4256     5.4035     0.1121 H       
  33 H33           -0.0144     4.2175     1.3643 H       
  34 H34            2.5760    -3.2643    -1.1119 H       
  35 H35            3.3553    -2.0517    -0.0618 H       
  36 H36            3.5149    -4.4079     0.8376 H       
  37 H37            2.6843    -3.2834     1.9401 H       
  38 H38           -0.6473    -4.5440     1.2420 H       
  39 H39            0.3053    -3.3612     2.1712 H       
  40 H40           -0.8161    -2.1890     0.3513 H       
  41 H41           -0.1757    -3.3517    -0.8398 H       
  42 H42            2.9634     4.8309     1.0419 H       
  43 H43            2.7037     6.8369     2.5724 H       
  44 H44            0.8691     6.6815     2.4648 H       
  45 H45            1.0093     4.3470     3.4469 H       
  46 H46            2.8439     4.5024     3.5546 H       
  47 H47            3.3134    -6.7388     1.1597 H       
  48 H48           -1.9479    -5.4792     5.0519 H       
  49 H49           -1.0265    -7.4983     6.1097 H       
  50 H50            0.9794    -8.5797     5.1984 H       
  51 H51           -0.8748    -4.5200     3.0739 H       
@<TRIPOS>BOND
   1    1    2 1
   2    1    6 1
   3    1    9 2
   4    2   18 1
   5    2    3 2
   6    3    4 1
   7    3   11 1
   8    4    5 2
   9    4   30 1
  10    5    6 1
  11    5   31 1
  12    6    7 1
  13    7    8 2
  14    7   10 1
  15    8    9 1
  16   10   17 1
  17   10   32 1
  18   10   33 1
  19   11   12 1
  20   11   16 1
  21   12   13 1
  22   12   34 1
  23   12   35 1
  24   13   14 1
  25   13   36 1
  26   13   37 1
  27   14   15 1
  28   14   21 1
  29   15   16 1
  30   15   38 1
  31   15   39 1
  32   16   40 1
  33   16   41 1
  34   17   19 1
  35   17   20 1
  36   17   42 1
  37   19   20 1
  38   19   43 1
  39   19   44 1
  40   20   45 1
  41   20   46 1
  42   21   28 1
  43   21   24 2
  44   22   28 ar
  45   22   23 1
  46   22   27 ar
  47   23   24 1
  48   24   47 1
  49   25   26 ar
  50   25   29 ar
  51   25   48 1
  52   26   27 ar
  53   26   49 1
  54   27   50 1
  55   28   29 ar
  56   29   51 1

#	End of record

