#	Name: ASD05430617
#	Creating user name:	WinNT
#	Creation time:	15. 06. 2019 21:00

#	Modifying user name:	WinNT
#	Modification time:	15. 06. 2019 21:00

#	Program:	/corina/corina34_cracker 3.40 0067  02.08.2006

@<TRIPOS>MOLECULE
ASD05430617
  44   46    0    0    0
SMALL
NO_CHARGES


@<TRIPOS>ATOM
   1 C1            -0.0107     1.3644     0.1370 C.ar    
   2 C2             0.0095    -0.0029     0.0084 C.ar    
   3 C3             1.2273    -0.6670    -0.1055 C.ar    
   4 C4             2.3904     0.0775    -0.0854 C.ar    
   5 C5             2.3551     1.4470     0.0335 C.ar    
   6 C6             1.1420     2.1420     0.1378 C.ar    
   7 C7             3.6497     2.2182     0.0522 C.3     
   8 C8             4.5018     1.7559     1.2358 C.3     
   9 C9             4.4104     1.9695    -1.2518 C.3     
  10 N10           -1.1915    -0.7266    -0.0075 N.pl3   
  11 C11           -2.2362    -0.5389    -0.8552 C.2     
  12 C12           -1.5307    -1.7613     0.8256 C.2     
  13 C13           -2.7639    -2.1642     0.4649 C.2     
  14 N14           -3.1698    -1.4024    -0.5617 N.2     
  15 C15           -3.5501    -3.2811     1.1016 C.3     
  16 C16            0.9855     3.6387     0.2246 C.3     
  17 C17           -0.3589     4.1116     0.8301 C.3     
  18 Si18          -1.4150     2.6077     0.3642 Si      
  19 C19           -2.3497     2.8875    -1.2229 C.3     
  20 C20           -2.5569     2.1120     1.7502 C.3     
  21 H21            1.2620    -1.7416    -0.2072 H       
  22 H22            3.3435    -0.4244    -0.1639 H       
  23 H23            3.4371     3.2827     0.1514 H       
  24 H24            4.7144     0.6914     1.1366 H       
  25 H25            5.4382     2.3137     1.2493 H       
  26 H26            3.9599     1.9331     2.1648 H       
  27 H27            3.8033     2.2989    -2.0951 H       
  28 H28            5.3467     2.5273    -1.2384 H       
  29 H29            4.6230     0.9050    -1.3511 H       
  30 H30           -2.2861     0.2013    -1.6400 H       
  31 H31           -0.9250    -2.1741     1.6188 H       
  32 H32           -4.1520    -2.8822     1.9181 H       
  33 H33           -4.2036    -3.7358     0.3570 H       
  34 H34           -2.8635    -4.0332     1.4902 H       
  35 H35            1.7974     4.0360     0.8337 H       
  36 H36            1.0776     4.0543    -0.7788 H       
  37 H37           -0.2913     4.2345     1.9110 H       
  38 H38           -0.7188     5.0204     0.3477 H       
  39 H39           -1.6438     3.0750    -2.0321 H       
  40 H40           -2.9429     2.0032    -1.4559 H       
  41 H41           -3.0092     3.7479    -1.1093 H       
  42 H42           -3.1616     2.9689     2.0468 H       
  43 H43           -3.2091     1.3063     1.4131 H       
  44 H44           -1.9681     1.7706     2.6016 H       
@<TRIPOS>BOND
   1    1    2 ar
   2    1    6 ar
   3    1   18 1
   4    2    3 ar
   5    2   10 1
   6    3    4 ar
   7    3   21 1
   8    4    5 ar
   9    4   22 1
  10    5    6 ar
  11    5    7 1
  12    6   16 1
  13    7    8 1
  14    7    9 1
  15    7   23 1
  16    8   24 1
  17    8   25 1
  18    8   26 1
  19    9   27 1
  20    9   28 1
  21    9   29 1
  22   10   11 1
  23   10   12 1
  24   11   14 2
  25   11   30 1
  26   12   13 2
  27   12   31 1
  28   13   14 1
  29   13   15 1
  30   15   32 1
  31   15   33 1
  32   15   34 1
  33   16   17 1
  34   16   35 1
  35   16   36 1
  36   17   18 1
  37   17   37 1
  38   17   38 1
  39   18   19 1
  40   18   20 1
  41   19   39 1
  42   19   40 1
  43   19   41 1
  44   20   42 1
  45   20   43 1
  46   20   44 1

#	End of record

