#	Name: ASD01881727
#	Creating user name:	WinNT
#	Creation time:	15. 06. 2019 19:43

#	Modifying user name:	WinNT
#	Modification time:	15. 06. 2019 19:43

#	Program:	/corina/corina34_cracker 3.40 0067  02.08.2006

@<TRIPOS>MOLECULE
ASD01881727
  49   52    0    0    0
SMALL
NO_CHARGES


@<TRIPOS>ATOM
   1 N1            -0.0154     1.2839     0.0091 N.pl3   
   2 N2             0.0021    -0.0041     0.0020 N.2     
   3 N3             1.2033    -0.4649    -0.0119 N.2     
   4 C4             2.0741     0.5645    -0.0147 C.ar    
   5 C5             1.2843     1.7298    -0.0009 C.ar    
   6 C6             3.4670     0.6759    -0.0271 C.ar    
   7 C7             4.0484     1.9285    -0.0255 C.ar    
   8 C8             3.2560     3.0739    -0.0118 C.ar    
   9 C9             1.8924     2.9784    -0.0004 C.ar    
  10 O10            5.4033     2.0444    -0.0370 O.3     
  11 C11            5.9411     3.3683    -0.0346 C.3     
  12 N12           10.0466     3.8906     0.9549 N.am    
  13 C13            9.5730     4.6340    -0.2206 C.3     
  14 C14            8.0438     4.7111    -0.1720 C.3     
  15 C15            7.4694     3.2979    -0.0487 C.3     
  16 C16            7.9623     2.6567     1.2506 C.3     
  17 C17            9.4905     2.5563     1.2181 C.3     
  18 S18           11.1905     4.5412     1.9602 S.o2    
  19 O19           11.8272     3.4127     2.5435 O.2     
  20 O20           11.9122     5.4431     1.1325 O.2     
  21 C21           10.2343     5.4478     3.2070 C.3     
  22 F22            9.3893     4.5607     3.8824 F       
  23 F23           11.1085     6.0461     4.1208 F       
  24 F24            9.4678     6.4356     2.5794 F       
  25 C25           -1.2133     2.1272     0.0196 C.3     
  26 C26           -1.6228     2.4135     1.4657 C.3     
  27 C27           -2.7884     3.3784     1.6921 C.3     
  28 C28           -2.9777     1.8797     1.9352 C.3     
  29 Br29           4.5472    -0.8761    -0.0451 Br      
  30 H30            3.7236     4.0474    -0.0103 H       
  31 H31            1.2882     3.8735     0.0099 H       
  32 H32            5.5939     3.9031    -0.9187 H       
  33 H33            5.6098     3.8935     0.8612 H       
  34 H34            9.9902     5.6409    -0.2085 H       
  35 H35            9.8842     4.1181    -1.1289 H       
  36 H36            7.7367     5.3050     0.6888 H       
  37 H37            7.6738     5.1758    -1.0859 H       
  38 H38            7.7975     2.6973    -0.8971 H       
  39 H39            7.6559     3.2700     2.0980 H       
  40 H40            7.5342     1.6592     1.3491 H       
  41 H41            9.7950     1.8710     0.4270 H       
  42 H42            9.8533     2.1924     2.1794 H       
  43 H43           -1.0007     3.0667    -0.4906 H       
  44 H44           -2.0254     1.6113    -0.4926 H       
  45 H45           -0.8089     2.4286     2.1906 H       
  46 H46           -2.7415     4.0280     2.5661 H       
  47 H47           -3.2635     3.8093     0.8108 H       
  48 H48           -3.5773     1.3246     1.2137 H       
  49 H49           -3.0553     1.5434     2.9691 H       
@<TRIPOS>BOND
   1    1    2 1
   2    1    5 1
   3    1   25 1
   4    2    3 2
   5    3    4 1
   6    4    5 ar
   7    4    6 ar
   8    5    9 ar
   9    6    7 ar
  10    6   29 1
  11    7    8 ar
  12    7   10 1
  13    8    9 ar
  14    8   30 1
  15    9   31 1
  16   10   11 1
  17   11   15 1
  18   11   32 1
  19   11   33 1
  20   12   13 1
  21   12   17 1
  22   12   18 am
  23   13   14 1
  24   13   34 1
  25   13   35 1
  26   14   15 1
  27   14   36 1
  28   14   37 1
  29   15   16 1
  30   15   38 1
  31   16   17 1
  32   16   39 1
  33   16   40 1
  34   17   41 1
  35   17   42 1
  36   18   19 2
  37   18   20 2
  38   18   21 1
  39   21   22 1
  40   21   23 1
  41   21   24 1
  42   25   26 1
  43   25   43 1
  44   25   44 1
  45   26   27 1
  46   26   28 1
  47   26   45 1
  48   27   28 1
  49   27   46 1
  50   27   47 1
  51   28   48 1
  52   28   49 1

#	End of record

