#	Name: ASD01913543
#	Creating user name:	WinNT
#	Creation time:	15. 06. 2019 20:01

#	Modifying user name:	WinNT
#	Modification time:	15. 06. 2019 20:01

#	Program:	/corina/corina34_cracker 3.40 0067  02.08.2006

@<TRIPOS>MOLECULE
ASD01913543
  35   37    0    0    0
SMALL
NO_CHARGES


@<TRIPOS>ATOM
   1 C1             0.3567     0.6181     0.8317 C.ar    
   2 C2            -0.0059     0.0012    -0.3613 C.ar    
   3 C3             0.8475     0.0894    -1.4520 C.ar    
   4 N4             1.9866     0.7466    -1.3632 N.ar    
   5 C5             2.3597     1.3422    -0.2473 C.ar    
   6 C6             1.5627     1.2989     0.8810 C.ar    
   7 C7            -1.1353    -2.0343    -0.4142 C.ar    
   8 C8             0.0772    -2.7047    -0.2795 C.ar    
   9 C9             0.0845    -4.0874    -0.2335 C.ar    
  10 N10           -1.0353    -4.7737    -0.3155 N.ar    
  11 C11           -2.2145    -4.1758    -0.4448 C.ar    
  12 C12           -2.3031    -2.7888    -0.4980 C.ar    
  13 C13           -3.4464    -4.9938    -0.5334 C.2     
  14 N14           -3.3676    -6.3383    -0.4829 N.am    
  15 O15           -1.1790    -0.6783    -0.4572 O.3     
  16 C16           -4.5359    -7.1072    -0.4667 C.ar    
  17 O17           -4.5280    -4.4525    -0.6517 O.2     
  18 C18           -4.5524    -8.3600    -1.0658 C.ar    
  19 C19           -5.7072    -9.1178    -1.0487 C.ar    
  20 C20           -6.8475    -8.6299    -0.4359 C.ar    
  21 C21           -6.8345    -7.3805     0.1622 C.ar    
  22 C22           -5.6798    -6.6214     0.1535 C.ar    
  23 Cl23          -8.2675    -6.7712     0.9297 Cl      
  24 Cl24          -8.2971    -9.5848    -0.4169 Cl      
  25 H25           -0.2879     0.5713     1.6970 H       
  26 H26            0.5758    -0.3858    -2.3830 H       
  27 H27            3.3009     1.8710    -0.2147 H       
  28 H28            1.8763     1.7895     1.7906 H       
  29 H29            1.0023    -2.1515    -0.2120 H       
  30 H30            1.0231    -4.6113    -0.1291 H       
  31 H31           -3.2626    -2.3042    -0.6027 H       
  32 H32           -2.5006    -6.7727    -0.4578 H       
  33 H33           -3.6629    -8.7414    -1.5450 H       
  34 H34           -5.7200   -10.0920    -1.5146 H       
  35 H35           -5.6697    -5.6474     0.6198 H       
@<TRIPOS>BOND
   1    1    2 ar
   2    1    6 ar
   3    1   25 1
   4    2    3 ar
   5    2   15 1
   6    3    4 ar
   7    3   26 1
   8    4    5 ar
   9    5    6 ar
  10    5   27 1
  11    6   28 1
  12    7    8 ar
  13    7   12 ar
  14    7   15 1
  15    8    9 ar
  16    8   29 1
  17    9   10 ar
  18    9   30 1
  19   10   11 ar
  20   11   12 ar
  21   11   13 1
  22   12   31 1
  23   13   14 am
  24   13   17 2
  25   14   16 1
  26   14   32 1
  27   16   18 ar
  28   16   22 ar
  29   18   19 ar
  30   18   33 1
  31   19   20 ar
  32   19   34 1
  33   20   21 ar
  34   20   24 1
  35   21   22 ar
  36   21   23 1
  37   22   35 1

#	End of record

