#	Name: ASD01910524
#	Creating user name:	WinNT
#	Creation time:	15. 06. 2019 19:56

#	Modifying user name:	WinNT
#	Modification time:	15. 06. 2019 19:56

#	Program:	/corina/corina34_cracker 3.40 0067  02.08.2006

@<TRIPOS>MOLECULE
ASD01910524
  47   51    0    0    0
SMALL
NO_CHARGES


@<TRIPOS>ATOM
   1 O1             0.0301     1.1300     0.1066 O.3     
   2 C2             0.0338    -0.2033    -0.0576 C.2     
   3 N3             1.3030    -0.5702    -0.1416 N.2     
   4 C4             2.0126     0.5619    -0.0239 C.2     
   5 N5             1.1705     1.5424     0.1226 N.2     
   6 C6            -1.1426    -1.0836    -0.1293 C.2     
   7 C7            -2.4360    -0.6781    -0.0396 C.2     
   8 C8            -3.2574    -1.8265    -0.1551 C.ar    
   9 C9            -2.3984    -2.9306    -0.3172 C.ar    
  10 N10           -1.1078    -2.4523    -0.3044 N.pl3   
  11 C11            3.9337     1.5834    -1.2174 C.3     
  12 C12            3.5148     0.6771    -0.0556 C.3     
  13 C13            4.0087     1.2811     1.2610 C.3     
  14 C14            5.5365     1.3681     1.2429 C.3     
  15 C15            5.9783     2.2823     0.0958 C.3     
  16 N16            5.3871     1.7899    -1.1559 N.am    
  17 C17            6.1632     1.5320    -2.2271 C.2     
  18 C18            7.6020     1.8656    -2.1943 C.ar    
  19 O19            5.6794     1.0248    -3.2204 O.2     
  20 C20            8.0408     3.0691    -1.6267 C.ar    
  21 C21            9.3970     3.3348    -1.6199 C.ar    
  22 C22           10.2723     2.4101    -2.1702 C.ar    
  23 N23            9.8284     1.2830    -2.6992 N.ar    
  24 C24            8.5463     0.9846    -2.7230 C.ar    
  25 F25           11.5989     2.6656    -2.1658 F       
  26 C26           -4.6440    -2.0235    -0.1364 C.ar    
  27 C27           -5.1527    -3.2824    -0.2752 C.ar    
  28 C28           -4.3075    -4.3730    -0.4348 C.ar    
  29 C29           -2.9407    -4.2045    -0.4568 C.ar    
  30 H30           -2.7770     0.3378     0.0957 H       
  31 H31           -0.3055    -2.9896    -0.3966 H       
  32 H32            3.6717     1.1095    -2.1634 H       
  33 H33            3.4244     2.5435    -1.1339 H       
  34 H34            3.9533    -0.3119    -0.1893 H       
  35 H35            3.5895     2.2799     1.3821 H       
  36 H36            3.6907     0.6508     2.0915 H       
  37 H37            5.8889     1.7767     2.1900 H       
  38 H38            5.9559     0.3727     1.0970 H       
  39 H39            5.6357     3.2994     0.2864 H       
  40 H40            7.0653     2.2695     0.0163 H       
  41 H41            7.3369     3.7716    -1.2054 H       
  42 H42            9.7712     4.2526    -1.1911 H       
  43 H43            8.2216     0.0536    -3.1638 H       
  44 H44           -5.3088    -1.1816    -0.0122 H       
  45 H45           -6.2222    -3.4319    -0.2605 H       
  46 H46           -4.7261    -5.3627    -0.5426 H       
  47 H47           -2.2917    -5.0587    -0.5818 H       
@<TRIPOS>BOND
   1    1    2 1
   2    1    5 1
   3    2    3 2
   4    2    6 1
   5    3    4 1
   6    4    5 2
   7    4   12 1
   8    6    7 2
   9    6   10 1
  10    7    8 1
  11    7   30 1
  12    8    9 ar
  13    8   26 ar
  14    9   10 1
  15    9   29 ar
  16   10   31 1
  17   11   12 1
  18   11   16 1
  19   11   32 1
  20   11   33 1
  21   12   13 1
  22   12   34 1
  23   13   14 1
  24   13   35 1
  25   13   36 1
  26   14   15 1
  27   14   37 1
  28   14   38 1
  29   15   16 1
  30   15   39 1
  31   15   40 1
  32   16   17 am
  33   17   18 1
  34   17   19 2
  35   18   20 ar
  36   18   24 ar
  37   20   21 ar
  38   20   41 1
  39   21   22 ar
  40   21   42 1
  41   22   23 ar
  42   22   25 1
  43   23   24 ar
  44   24   43 1
  45   26   27 ar
  46   26   44 1
  47   27   28 ar
  48   27   45 1
  49   28   29 ar
  50   28   46 1
  51   29   47 1

#	End of record

