#	Name: ASD01918077
#	Creating user name:	WinNT
#	Creation time:	15. 06. 2019 20:10

#	Modifying user name:	WinNT
#	Modification time:	15. 06. 2019 20:10

#	Program:	/corina/corina34_cracker 3.40 0067  02.08.2006

@<TRIPOS>MOLECULE
ASD01918077
  39   41    0    0    0
SMALL
NO_CHARGES


@<TRIPOS>ATOM
   1 C1            -0.0167     1.3796     0.0096 C.ar    
   2 C2             0.0021    -0.0041     0.0020 C.ar    
   3 C3             1.2058    -0.6865    -0.0132 C.ar    
   4 C4             2.3967     0.0091    -0.0204 C.ar    
   5 C5             2.3857     1.4065    -0.0128 C.ar    
   6 C6             1.1662     2.0887     0.0021 C.ar    
   7 C7             3.6181     2.1358    -0.0202 C.1     
   8 C8             4.6284     2.7336    -0.0263 C.1     
   9 C9             5.8608     3.4629    -0.0337 C.ar    
  10 C10            5.8582     4.8652    -0.0262 C.ar    
  11 N11            7.0166     5.5015    -0.0335 N.ar    
  12 C12            8.1470     4.8059    -0.0477 C.ar    
  13 N13            8.1335     3.4791    -0.0551 N.ar    
  14 N14            7.0281     2.8191    -0.0424 N.ar    
  15 N15            9.3626     5.4771    -0.0553 N.am    
  16 C16           10.5934     4.6908    -0.0709 C.3     
  17 C17            9.3537     6.8144    -0.0535 C.2     
  18 O18           10.4719     7.5545    -0.1052 O.3     
  19 C19           11.7253     6.8874     0.2094 C.3     
  20 C20           11.7594     5.5567    -0.5562 C.3     
  21 C21           12.9009     7.7633    -0.2284 C.3     
  22 C22           11.8075     6.6255     1.7146 C.3     
  23 O23            8.2828     7.3861    -0.0029 O.2     
  24 H24           -0.9600     1.9055     0.0170 H       
  25 H25           -0.9274    -0.5541     0.0083 H       
  26 H26            1.2127    -1.7665    -0.0191 H       
  27 H27            3.3354    -0.5249    -0.0316 H       
  28 H28            1.1500     3.1686     0.0077 H       
  29 H29            4.9282     5.4142    -0.0150 H       
  30 H30           10.8051     4.3296     0.9355 H       
  31 H31           10.4709     3.8399    -0.7411 H       
  32 H32           12.7012     5.0441    -0.3599 H       
  33 H33           11.6594     5.7454    -1.6251 H       
  34 H34           12.8582     8.7176     0.2966 H       
  35 H35           13.8378     7.2595     0.0094 H       
  36 H36           12.8442     7.9369    -1.3030 H       
  37 H37           10.9748     5.9915     2.0191 H       
  38 H38           12.7482     6.1256     1.9456 H       
  39 H39           11.7581     7.5728     2.2515 H       
@<TRIPOS>BOND
   1    1    2 ar
   2    1    6 ar
   3    1   24 1
   4    2    3 ar
   5    2   25 1
   6    3    4 ar
   7    3   26 1
   8    4    5 ar
   9    4   27 1
  10    5    6 ar
  11    5    7 1
  12    6   28 1
  13    7    8 3
  14    8    9 1
  15    9   10 ar
  16    9   14 ar
  17   10   11 ar
  18   10   29 1
  19   11   12 ar
  20   12   15 1
  21   12   13 ar
  22   13   14 ar
  23   15   16 1
  24   15   17 am
  25   16   20 1
  26   16   30 1
  27   16   31 1
  28   17   18 1
  29   17   23 2
  30   18   19 1
  31   19   20 1
  32   19   21 1
  33   19   22 1
  34   20   32 1
  35   20   33 1
  36   21   34 1
  37   21   35 1
  38   21   36 1
  39   22   37 1
  40   22   38 1
  41   22   39 1

#	End of record

