#	Name: ASD09116344
#	Creating user name:	WinNT
#	Creation time:	15. 06. 2019 21:21

#	Modifying user name:	WinNT
#	Modification time:	15. 06. 2019 21:21

#	Program:	/corina/corina34_cracker 3.40 0067  02.08.2006

@<TRIPOS>MOLECULE
ASD09116344
  68   74    0    0    0
SMALL
NO_CHARGES


@<TRIPOS>ATOM
   1 N1            -0.0586     1.4799     0.3600 N.2     
   2 N2            -0.0748     0.1212     0.7141 N.pl3   
   3 C3             1.1992     1.8493     0.3174 C.2     
   4 N4             1.9723     0.8010     0.6242 N.2     
   5 C5             1.2182    -0.2498     0.8663 C.2     
   6 N6             1.6669    -1.5094     1.2151 N.pl3   
   7 C7            -1.2014    -0.6872     0.8769 C.ar    
   8 N8             1.6571     3.1288     0.0030 N.pl3   
   9 C9             3.0221     3.4266     0.0972 C.ar    
  10 C10            3.5832     4.3841    -0.7383 C.ar    
  11 C11            3.8132     2.7690     1.0294 C.ar    
  12 C12            5.1601     3.0625     1.1234 C.ar    
  13 C13            5.7232     4.0146     0.2857 C.ar    
  14 C14            4.9305     4.6778    -0.6450 C.ar    
  15 N15            7.0892     4.3124     0.3817 N.3     
  16 F16            5.4782     5.6046    -1.4612 F       
  17 N17           -1.1031    -1.9991     0.7226 N.ar    
  18 N18           -2.1110    -2.7866     0.8519 N.ar    
  19 C19           -3.3163    -2.3277     1.1482 C.ar    
  20 C20           -3.5112    -0.9584     1.3505 C.ar    
  21 C21           -2.4312    -0.1129     1.2082 C.ar    
  22 C22           -4.4899    -3.2264     1.2445 C.ar    
  23 C23           -5.6567    -2.8883     0.5571 C.ar    
  24 C24           -5.6744    -1.6555    -0.3046 C.3     
  25 C25           -5.7983    -0.3890     0.5381 C.3     
  26 C26           -4.8668    -0.4495     1.7457 C.3     
  27 C27           -4.4437    -4.3882     2.0071 C.ar    
  28 C28           -5.5628    -5.1933     2.0950 C.ar    
  29 C29           -6.7236    -4.8439     1.4291 C.ar    
  30 C30           -6.7711    -3.6926     0.6620 C.ar    
  31 C31            7.7620     4.1548    -0.9329 C.3     
  32 C32            9.2564     3.9822    -0.5902 C.3     
  33 C33            9.2714     3.4440     0.8660 C.3     
  34 C34            7.7846     3.3424     1.2656 C.3     
  35 C35            9.8330     2.8328    -1.4428 C.3     
  36 N36           10.6547     2.0364    -0.4961 N.3     
  37 C37            9.8556     2.0203     0.7557 C.3     
  38 C38           10.8682     0.6738    -1.0019 C.3     
  39 H39            2.6181    -1.6790     1.3003 H       
  40 H40            1.0306    -2.2239     1.3747 H       
  41 H41            1.0300     3.8122    -0.2809 H       
  42 H42            2.9669     4.8986    -1.4608 H       
  43 H43            3.3756     2.0278     1.6817 H       
  44 H44            5.7747     2.5510     1.8493 H       
  45 H45           -2.5338     0.9540     1.3405 H       
  46 H46           -4.7509    -1.6107    -0.8819 H       
  47 H47           -6.5199    -1.7118    -0.9902 H       
  48 H48           -5.5381     0.4754    -0.0729 H       
  49 H49           -6.8272    -0.2868     0.8832 H       
  50 H50           -5.2948    -1.1148     2.4955 H       
  51 H51           -4.7650     0.5493     2.1702 H       
  52 H52           -3.5376    -4.6595     2.5284 H       
  53 H53           -5.5312    -6.0976     2.6846 H       
  54 H54           -7.5980    -5.4728     1.5081 H       
  55 H55           -7.6810    -3.4249     0.1456 H       
  56 H56            7.3860     3.2710    -1.4484 H       
  57 H57            7.6130     5.0445    -1.5448 H       
  58 H58            9.8168     4.9109    -0.6977 H       
  59 H59            9.8398     4.0835     1.5413 H       
  60 H60            7.6527     3.6194     2.3115 H       
  61 H61            7.4122     2.3333     1.0892 H       
  62 H62            9.0277     2.2231    -1.8526 H       
  63 H63           10.4554     3.2301    -2.2446 H       
  64 H64           10.4951     1.8049     1.6117 H       
  65 H65            9.0538     1.2853     0.6850 H       
  66 H66           11.3848     0.7190    -1.9606 H       
  67 H67           11.4727     0.1124    -0.2895 H       
  68 H68            9.9055     0.1791    -1.1308 H       
@<TRIPOS>BOND
   1    1    2 1
   2    1    3 2
   3    2    7 1
   4    2    5 1
   5    3    4 1
   6    3    8 1
   7    4    5 2
   8    5    6 1
   9    6   39 1
  10    6   40 1
  11    7   17 ar
  12    7   21 ar
  13    8    9 1
  14    8   41 1
  15    9   10 ar
  16    9   11 ar
  17   10   14 ar
  18   10   42 1
  19   11   12 ar
  20   11   43 1
  21   12   13 ar
  22   12   44 1
  23   13   14 ar
  24   13   15 1
  25   14   16 1
  26   15   31 1
  27   15   34 1
  28   17   18 ar
  29   18   19 ar
  30   19   20 ar
  31   19   22 1
  32   20   21 ar
  33   20   26 1
  34   21   45 1
  35   22   23 ar
  36   22   27 ar
  37   23   24 1
  38   23   30 ar
  39   24   25 1
  40   24   46 1
  41   24   47 1
  42   25   26 1
  43   25   48 1
  44   25   49 1
  45   26   50 1
  46   26   51 1
  47   27   28 ar
  48   27   52 1
  49   28   29 ar
  50   28   53 1
  51   29   30 ar
  52   29   54 1
  53   30   55 1
  54   31   32 1
  55   31   56 1
  56   31   57 1
  57   32   33 1
  58   32   35 1
  59   32   58 1
  60   33   34 1
  61   33   37 1
  62   33   59 1
  63   34   60 1
  64   34   61 1
  65   35   36 1
  66   35   62 1
  67   35   63 1
  68   36   37 1
  69   36   38 1
  70   37   64 1
  71   37   65 1
  72   38   66 1
  73   38   67 1
  74   38   68 1

#	End of record

