#	Name: ASD04910320
#	Creating user name:	WinNT
#	Creation time:	15. 06. 2019 20:55

#	Modifying user name:	WinNT
#	Modification time:	15. 06. 2019 20:55

#	Program:	/corina/corina34_cracker 3.40 0067  02.08.2006

@<TRIPOS>MOLECULE
ASD04910320
  55   57    0    0    0
SMALL
NO_CHARGES


@<TRIPOS>ATOM
   1 C1             0.1210     1.2160    -0.2911 C.ar    
   2 C2             0.3249    -0.1521    -0.3265 C.ar    
   3 C3            -0.7298    -1.0033    -0.5837 C.ar    
   4 C4            -2.0049    -0.4816    -0.8081 C.ar    
   5 C5            -2.2038     0.8994    -0.7704 C.ar    
   6 C6            -1.1415     1.7392    -0.5069 C.ar    
   7 C7             1.2780     2.1398    -0.0099 C.3     
   8 O8             1.1202     3.3437    -0.7635 O.3     
   9 C9             2.2415     3.8782    -1.3143 C.ar    
  10 C10            1.3132     2.4734     1.4828 C.3     
  11 C11            3.4827     3.3220    -1.0363 C.ar    
  12 C12            2.1432     4.9758    -2.1585 C.ar    
  13 C13            3.2796     5.5204    -2.7190 C.ar    
  14 C14            4.5275     4.9677    -2.4372 C.ar    
  15 C15            4.6226     3.8626    -1.5936 C.ar    
  16 C16            5.7521     5.5511    -3.0392 C.2     
  17 C17            7.0703     5.0957    -2.8418 C.2     
  18 C18            7.8943     5.8889    -3.5606 C.2     
  19 N19            7.1380     6.8127    -4.1916 N.pl3   
  20 N20            5.7978     6.5819    -3.8565 N.2     
  21 C21           -3.1397    -1.3879    -1.0848 C.2     
  22 N22           -4.3697    -0.8811    -1.3010 N.am    
  23 O23           -2.9634    -2.5902    -1.1173 O.2     
  24 C24           -5.4942    -1.7792    -1.5752 C.3     
  25 C25           -6.7665    -0.9549    -1.7820 C.3     
  26 C26           -7.9232    -1.8787    -2.0640 C.2     
  27 O27           -7.7480    -3.0737    -2.0964 O.2     
  28 O28           -9.1482    -1.3739    -2.2794 O.3     
  29 C29            2.5577     3.3089     1.7895 C.3     
  30 C30            2.5929     3.6426     3.2822 C.3     
  31 H31            1.3120    -0.5544    -0.1527 H       
  32 H32           -0.5692    -2.0709    -0.6118 H       
  33 H33           -3.1879     1.3093    -0.9431 H       
  34 H34           -1.2940     2.8080    -0.4775 H       
  35 H35            2.2100     1.6521    -0.2953 H       
  36 H36            0.4207     3.0395     1.7498 H       
  37 H37            1.3441     1.5499     2.0609 H       
  38 H38            3.5558     2.4653    -0.3827 H       
  39 H39            1.1758     5.4035    -2.3768 H       
  40 H40            3.2025     6.3741    -3.3760 H       
  41 H41            5.5883     3.4322    -1.3734 H       
  42 H42            7.3691     4.2610    -2.2251 H       
  43 H43            8.9690     5.8001    -3.6199 H       
  44 H44            7.4658     7.5128    -4.7776 H       
  45 H45           -4.5103     0.0783    -1.2750 H       
  46 H46           -5.2859    -2.3578    -2.4751 H       
  47 H47           -5.6327    -2.4559    -0.7320 H       
  48 H48           -6.9747    -0.3762    -0.8820 H       
  49 H49           -6.6280    -0.2781    -2.6251 H       
  50 H50           -9.8585    -2.0057    -2.4562 H       
  51 H51            3.4501     2.7429     1.5225 H       
  52 H52            2.5268     4.2325     1.2114 H       
  53 H53            3.4795     4.2378     3.5007 H       
  54 H54            1.7004     4.2086     3.5492 H       
  55 H55            2.6238     2.7190     3.8603 H       
@<TRIPOS>BOND
   1    1    2 ar
   2    1    7 1
   3    1    6 ar
   4    2    3 ar
   5    2   31 1
   6    3    4 ar
   7    3   32 1
   8    4    5 ar
   9    4   21 1
  10    5    6 ar
  11    5   33 1
  12    6   34 1
  13    7    8 1
  14    7   10 1
  15    7   35 1
  16    8    9 1
  17    9   11 ar
  18    9   12 ar
  19   10   29 1
  20   10   36 1
  21   10   37 1
  22   11   15 ar
  23   11   38 1
  24   12   13 ar
  25   12   39 1
  26   13   14 ar
  27   13   40 1
  28   14   15 ar
  29   14   16 1
  30   15   41 1
  31   16   17 1
  32   16   20 2
  33   17   18 2
  34   17   42 1
  35   18   19 1
  36   18   43 1
  37   19   20 1
  38   19   44 1
  39   21   22 am
  40   21   23 2
  41   22   24 1
  42   22   45 1
  43   24   25 1
  44   24   46 1
  45   24   47 1
  46   25   26 1
  47   25   48 1
  48   25   49 1
  49   26   27 2
  50   26   28 1
  51   28   50 1
  52   29   30 1
  53   29   51 1
  54   29   52 1
  55   30   53 1
  56   30   54 1
  57   30   55 1

#	End of record

