#	Name: ASD07930873
#	Creating user name:	WinNT
#	Creation time:	15. 06. 2019 21:13

#	Modifying user name:	WinNT
#	Modification time:	15. 06. 2019 21:13

#	Program:	/corina/corina34_cracker 3.40 0067  02.08.2006

@<TRIPOS>MOLECULE
ASD07930873
  51   55    0    0    0
SMALL
NO_CHARGES


@<TRIPOS>ATOM
   1 N1            -0.0156     1.2970     0.0092 N.2     
   2 C2             0.0021    -0.0041     0.0020 C.2     
   3 N3             1.1480    -0.7297    -0.0124 N.am    
   4 C4             2.3519    -0.1117    -0.0201 C.2     
   5 C5             2.3587     1.3569    -0.0128 C.ar    
   6 C6             3.5563     2.0887    -0.0204 C.ar    
   7 C7             3.5523     3.4430    -0.0140 C.ar    
   8 C8             2.3428     4.1689     0.0006 C.ar    
   9 C9             1.1059     3.4790     0.0087 C.ar    
  10 C10            1.1175     2.0190     0.0022 C.ar    
  11 C11           -0.0902     4.2034     0.0237 C.ar    
  12 C12           -0.0542     5.5674     0.0302 C.ar    
  13 C13            1.1589     6.2482     0.0222 C.ar    
  14 C14            2.3424     5.5722     0.0077 C.ar    
  15 O15            3.3897    -0.7488    -0.0323 O.2     
  16 N16           -0.5072    -4.6043    -0.0123 N.3     
  17 C17            0.2303    -4.2033     1.1926 C.3     
  18 C18            0.3498    -2.6782     1.2352 C.3     
  19 C19            1.0819    -2.1932    -0.0191 C.3     
  20 C20            0.3195    -2.6653    -1.2602 C.3     
  21 C21            0.2008    -4.1908    -1.2305 C.3     
  22 O22            1.0852    -2.2895     2.3971 O.3     
  23 C23            4.8626     4.1874    -0.0220 C.3     
  24 C24            6.0181     3.6658     2.1416 C.ar    
  25 C25            5.2506     4.5366     1.3917 C.ar    
  26 C26            4.8424     5.7358     1.9557 C.ar    
  27 C27            5.2229     6.0157     3.2588 C.ar    
  28 C28            5.9922     5.0956     3.9486 C.ar    
  29 N29            6.3627     3.9642     3.3790 N.ar    
  30 Cl30           6.4759     5.4334     5.5813 Cl      
  31 H31           -0.9405    -0.5313     0.0082 H       
  32 H32            4.4990     1.5619    -0.0312 H       
  33 H33           -1.0381     3.6857     0.0296 H       
  34 H34           -0.9788     6.1253     0.0414 H       
  35 H35            1.1630     7.3282     0.0273 H       
  36 H36            3.2763     6.1145     0.0020 H       
  37 H37           -0.6820    -5.5980    -0.0153 H       
  38 H38           -0.3032    -4.5506     2.0774 H       
  39 H39            1.2265    -4.6452     1.1725 H       
  40 H40           -0.6459    -2.2359     1.2692 H       
  41 H41            2.0913    -2.6043    -0.0335 H       
  42 H42           -0.6767    -2.2229    -1.2655 H       
  43 H43            0.8588    -2.3596    -2.1568 H       
  44 H44            1.1972    -4.6327    -1.2392 H       
  45 H45           -0.3540    -4.5290    -2.1056 H       
  46 H46            0.6800    -2.5670     3.2301 H       
  47 H47            5.6346     3.5592    -0.4661 H       
  48 H48            4.7575     5.1016    -0.6063 H       
  49 H49            6.3360     2.7280     1.7105 H       
  50 H50            4.2423     6.4353     1.3928 H       
  51 H51            4.9231     6.9403     3.7295 H       
@<TRIPOS>BOND
   1    1    2 2
   2    1   10 1
   3    2    3 1
   4    2   31 1
   5    3    4 am
   6    3   19 1
   7    4    5 1
   8    4   15 2
   9    5    6 ar
  10    5   10 ar
  11    6    7 ar
  12    6   32 1
  13    7    8 ar
  14    7   23 1
  15    8    9 ar
  16    8   14 ar
  17    9   10 ar
  18    9   11 ar
  19   11   12 ar
  20   11   33 1
  21   12   13 ar
  22   12   34 1
  23   13   14 ar
  24   13   35 1
  25   14   36 1
  26   16   17 1
  27   16   21 1
  28   16   37 1
  29   17   18 1
  30   17   38 1
  31   17   39 1
  32   18   19 1
  33   18   22 1
  34   18   40 1
  35   19   20 1
  36   19   41 1
  37   20   21 1
  38   20   42 1
  39   20   43 1
  40   21   44 1
  41   21   45 1
  42   22   46 1
  43   23   25 1
  44   23   47 1
  45   23   48 1
  46   24   25 ar
  47   24   29 ar
  48   24   49 1
  49   25   26 ar
  50   26   27 ar
  51   26   50 1
  52   27   28 ar
  53   27   51 1
  54   28   29 ar
  55   28   30 1

#	End of record

