#	Name: ASD01150580
#	Creating user name:	WinNT
#	Creation time:	15. 06. 2019 19:04

#	Modifying user name:	WinNT
#	Modification time:	15. 06. 2019 19:04

#	Program:	/corina/corina34_cracker 3.40 0067  02.08.2006

@<TRIPOS>MOLECULE
ASD01150580
  51   54    0    0    0
SMALL
NO_CHARGES


@<TRIPOS>ATOM
   1 C1             0.4933     1.3920    -0.9463 C.ar    
   2 C2             0.4638     0.0110    -0.9223 C.ar    
   3 C3             1.9479     0.0101     0.9678 C.ar    
   4 C4             1.9790     1.3965     0.9447 C.ar    
   5 C5             1.2509     2.0887    -0.0130 C.ar    
   6 N6             1.2802     3.4880    -0.0388 N.am    
   7 C7             0.1264     4.1736    -0.1213 C.2     
   8 N8             0.1178     5.5194    -0.1484 N.am    
   9 C9             1.2790     6.2039    -0.0925 C.2     
  10 C10            2.5444     5.4600    -0.0021 C.2     
  11 N11            2.5099     4.1537     0.0273 N.2     
  12 O12            1.2794     7.4207    -0.1168 O.2     
  13 C13           -1.1538     6.2413    -0.2391 C.3     
  14 O14           -0.9268     3.5677    -0.1728 O.2     
  15 C15           -1.6751     6.5169     1.1477 C.ar    
  16 O16            3.7302     6.1203     0.0557 O.3     
  17 C17            4.9131     5.3232     0.1422 C.3     
  18 C18            1.1882    -0.6824     0.0308 C.ar    
  19 C19           -1.3232     7.6848     1.7976 C.ar    
  20 C20           -1.7982     7.9405     3.0704 C.ar    
  21 C21           -2.6294     7.0255     3.6985 C.ar    
  22 C22           -2.9860     5.8523     3.0435 C.ar    
  23 C23           -2.5090     5.6036     1.7655 C.ar    
  24 N24            2.6816    -0.6917     1.9323 N.am    
  25 C25            2.9447    -0.1220     3.1251 C.2     
  26 C26            3.6402    -0.9146     4.2017 C.3     
  27 O27            2.6216     1.0286     3.3321 O.2     
  28 F28            1.1574    -2.0329     0.0517 F       
  29 O29           -3.0831     7.2872     4.9547 O.3     
  30 C30           -4.2101     6.5267     5.4034 C.3     
  31 C31           -3.9637     5.0520     5.0576 C.3     
  32 O32           -3.8069     4.9443     3.6386 O.3     
  33 H33           -0.0696     1.9305    -1.6943 H       
  34 H34           -0.1261    -0.5283    -1.6487 H       
  35 H35            2.5683     1.9365     1.6710 H       
  36 H36           -0.9994     7.1845    -0.7633 H       
  37 H37           -1.8770     5.6361    -0.7856 H       
  38 H38            4.9802     4.6767    -0.7328 H       
  39 H39            5.7872     5.9732     0.1816 H       
  40 H40            4.8740     4.7117     1.0436 H       
  41 H41           -0.6758     8.3988     1.3103 H       
  42 H42           -1.5213     8.8536     3.5762 H       
  43 H43           -2.7832     4.6922     1.2551 H       
  44 H44            3.0005    -1.5878     1.7420 H       
  45 H45            4.6177    -1.2361     3.8421 H       
  46 H46            3.7657    -0.2921     5.0876 H       
  47 H47            3.0404    -1.7890     4.4541 H       
  48 H48           -4.3224     6.6375     6.4819 H       
  49 H49           -5.1125     6.8760     4.9016 H       
  50 H50           -3.0582     4.7042     5.5549 H       
  51 H51           -4.8145     4.4517     5.3801 H       
@<TRIPOS>BOND
   1    1    2 ar
   2    1    5 ar
   3    1   33 1
   4    2   18 ar
   5    2   34 1
   6    3    4 ar
   7    3   24 1
   8    3   18 ar
   9    4    5 ar
  10    4   35 1
  11    5    6 1
  12    6    7 am
  13    6   11 1
  14    7    8 am
  15    7   14 2
  16    8    9 am
  17    8   13 1
  18    9   10 1
  19    9   12 2
  20   10   11 2
  21   10   16 1
  22   13   15 1
  23   13   36 1
  24   13   37 1
  25   15   19 ar
  26   15   23 ar
  27   16   17 1
  28   17   38 1
  29   17   39 1
  30   17   40 1
  31   18   28 1
  32   19   20 ar
  33   19   41 1
  34   20   21 ar
  35   20   42 1
  36   21   22 ar
  37   21   29 1
  38   22   23 ar
  39   22   32 1
  40   23   43 1
  41   24   25 am
  42   24   44 1
  43   25   26 1
  44   25   27 2
  45   26   45 1
  46   26   46 1
  47   26   47 1
  48   29   30 1
  49   30   31 1
  50   30   48 1
  51   30   49 1
  52   31   32 1
  53   31   50 1
  54   31   51 1

#	End of record

