#	Name: ASD01410567
#	Creating user name:	WinNT
#	Creation time:	15. 06. 2019 19:18

#	Modifying user name:	WinNT
#	Modification time:	15. 06. 2019 19:18

#	Program:	/corina/corina34_cracker 3.40 0067  02.08.2006

@<TRIPOS>MOLECULE
ASD01410567
  73   76    0    0    0
SMALL
NO_CHARGES


@<TRIPOS>ATOM
   1 C1            -0.0486    -0.1358     3.0839 C.ar    
   2 C2             0.7427    -0.5461     4.1477 C.ar    
   3 C3             2.0824    -0.8040     3.9332 C.ar    
   4 N4             2.6142    -0.6650     2.7339 N.ar    
   5 C5             1.8926    -0.2760     1.6955 C.ar    
   6 C6             0.5390     0.0006     1.8381 C.ar    
   7 O7             2.4805    -0.1458     0.4798 O.3     
   8 C8             3.8242    -0.3362     0.3968 C.ar    
   9 C9             4.3536    -1.6117     0.5525 C.ar    
  10 C10            5.7176    -1.8162     0.4701 C.ar    
  11 C11            6.5699    -0.7444     0.2304 C.ar    
  12 C12            6.0401     0.5445     0.0722 C.ar    
  13 C13            4.6586     0.7390     0.1522 C.ar    
  14 N14            7.9473    -0.9502     0.1479 N.am    
  15 C15            8.5143    -1.2490    -1.0377 C.2     
  16 C16            8.7774    -0.8413     1.3501 C.3     
  17 O17            9.6963    -1.5148    -1.0948 O.2     
  18 C18            7.6796    -1.2530    -2.2924 C.3     
  19 C19            0.1466    -0.7079     5.5223 C.3     
  20 C20            8.2515    -2.2699    -3.2822 C.3     
  21 C21            7.4040    -2.2739    -4.5561 C.3     
  22 C22            7.4253    -0.8802    -5.1872 C.3     
  23 C23            6.8534     0.1367    -4.1974 C.3     
  24 C24            7.7009     0.1407    -2.9235 C.3     
  25 C25            6.5779    -0.8842    -6.4610 C.3     
  26 C26            9.8907     0.1804     1.1104 C.3     
  27 O27            8.3669    -3.1137     2.0632 O.3     
  28 C28            9.3958    -2.2042     1.6680 C.3     
  29 N29           -0.3463    -2.0782     5.6826 N.pl3   
  30 N30            0.3523    -3.0575     6.1372 N.2     
  31 C31           -0.3941    -4.1386     6.1480 C.2     
  32 C32           -1.6406    -3.7480     5.6534 C.2     
  33 N33           -1.5383    -2.4643     5.3929 N.2     
  34 F34            6.2238    -3.0594     0.6231 F       
  35 C35            8.8404    -4.4233     2.3839 C.3     
  36 C36            6.9355     1.6873    -0.1823 C.2     
  37 O37            8.1208     1.4998    -0.3729 O.2     
  38 O38            6.4396     2.9401    -0.2036 O.3     
  39 C39           -0.2791     0.4428     0.6523 C.3     
  40 F40           -1.6025     0.6569     1.0525 F       
  41 F41            0.2504     1.6310     0.1375 F       
  42 F42           -0.2448    -0.5488    -0.3339 F       
  43 H43           -1.0999     0.0680     3.2240 H       
  44 H44            2.7026    -1.1231     4.7578 H       
  45 H45            3.6954    -2.4474     0.7392 H       
  46 H46            4.2439     1.7289     0.0314 H       
  47 H47            8.1614    -0.5174     2.1890 H       
  48 H48            6.6532    -1.5242    -2.0451 H       
  49 H49            0.9087    -0.5056     6.2750 H       
  50 H50           -0.6798    -0.0078     5.6447 H       
  51 H51            9.2778    -1.9986    -3.5295 H       
  52 H52            8.2363    -3.2627    -2.8326 H       
  53 H53            7.8114    -2.9983    -5.2612 H       
  54 H54            6.3777    -2.5451    -4.3088 H       
  55 H55            8.4517    -0.6090    -5.4344 H       
  56 H56            6.8686     1.1295    -4.6470 H       
  57 H57            5.8271    -0.1346    -3.9501 H       
  58 H58            7.2935     0.8651    -2.2183 H       
  59 H59            8.7272     0.4119    -3.1708 H       
  60 H60            5.5515    -1.1555    -6.2138 H       
  61 H61            6.5931     0.1086    -6.9106 H       
  62 H62            6.9853    -1.6087    -7.1662 H       
  63 H63            9.4619     1.1817     1.0679 H       
  64 H64           10.6129     0.1288     1.9252 H       
  65 H65           10.3904    -0.0412     0.1674 H       
  66 H66            9.9008    -2.5895     0.7822 H       
  67 H67           10.1163    -2.0961     2.4788 H       
  68 H68           -0.1034    -5.1268     6.4724 H       
  69 H69           -2.5114    -4.3722     5.5173 H       
  70 H70            9.5493    -4.3612     3.2095 H       
  71 H71            7.9992    -5.0529     2.6738 H       
  72 H72            9.3338    -4.8546     1.5130 H       
  73 H73            7.0655     3.6572    -0.3744 H       
@<TRIPOS>BOND
   1    1    2 ar
   2    1    6 ar
   3    1   43 1
   4    2    3 ar
   5    2   19 1
   6    3    4 ar
   7    3   44 1
   8    4    5 ar
   9    5    6 ar
  10    5    7 1
  11    6   39 1
  12    7    8 1
  13    8    9 ar
  14    8   13 ar
  15    9   10 ar
  16    9   45 1
  17   10   11 ar
  18   10   34 1
  19   11   12 ar
  20   11   14 1
  21   12   13 ar
  22   12   36 1
  23   13   46 1
  24   14   15 am
  25   14   16 1
  26   15   17 2
  27   15   18 1
  28   16   26 1
  29   16   28 1
  30   16   47 1
  31   18   20 1
  32   18   24 1
  33   18   48 1
  34   19   29 1
  35   19   49 1
  36   19   50 1
  37   20   21 1
  38   20   51 1
  39   20   52 1
  40   21   22 1
  41   21   53 1
  42   21   54 1
  43   22   23 1
  44   22   25 1
  45   22   55 1
  46   23   24 1
  47   23   56 1
  48   23   57 1
  49   24   58 1
  50   24   59 1
  51   25   60 1
  52   25   61 1
  53   25   62 1
  54   26   63 1
  55   26   64 1
  56   26   65 1
  57   27   28 1
  58   27   35 1
  59   28   66 1
  60   28   67 1
  61   29   30 1
  62   29   33 1
  63   30   31 2
  64   31   32 1
  65   31   68 1
  66   32   33 2
  67   32   69 1
  68   35   70 1
  69   35   71 1
  70   35   72 1
  71   36   37 2
  72   36   38 1
  73   38   73 1
  74   39   40 1
  75   39   41 1
  76   39   42 1

#	End of record

