#	Name: ASD01916088
#	Creating user name:	WinNT
#	Creation time:	15. 06. 2019 20:06

#	Modifying user name:	WinNT
#	Modification time:	15. 06. 2019 20:06

#	Program:	/corina/corina34_cracker 3.40 0067  02.08.2006

@<TRIPOS>MOLECULE
ASD01916088
  37   39    0    0    0
SMALL
NO_CHARGES


@<TRIPOS>ATOM
   1 C1            -0.4093     1.7392     0.1051 C.ar    
   2 C2            -0.5416     0.3889     0.3739 C.ar    
   3 N3             0.5017    -0.3407     0.7077 N.ar    
   4 C4             1.7195     0.1812     0.8006 C.ar    
   5 C5             1.9325     1.5320     0.5448 C.ar    
   6 C6             0.8484     2.3306     0.1898 C.ar    
   7 C7            -1.9005    -0.2563     0.2838 C.3     
   8 O8             1.0138     3.6529    -0.0683 O.3     
   9 C9             2.2655     4.1717     0.0367 C.ar    
  10 C10            3.1954     3.9755    -0.9740 C.ar    
  11 N11            4.4108     4.4770    -0.8773 N.ar    
  12 C12            4.7912     5.1789     0.1720 C.ar    
  13 C13            3.9203     5.4169     1.2207 C.ar    
  14 C14            2.6306     4.9122     1.1567 C.ar    
  15 C15            2.8612    -0.6828     1.1806 C.2     
  16 N16            2.6617    -1.9921     1.4301 N.am    
  17 O17            3.9777    -0.2110     1.2672 O.2     
  18 C18            3.7482    -2.8262     1.6842 C.ar    
  19 C19            3.5475    -4.1943     1.8254 C.ar    
  20 C20            4.6354    -5.0126     2.0771 C.ar    
  21 C21            5.8912    -4.4319     2.1794 C.ar    
  22 C22            6.0183    -3.0631     2.0279 C.ar    
  23 N23            4.9630    -2.3090     1.7834 N.ar    
  24 Cl24           4.4342     6.3422     2.5967 Cl      
  25 Cl25           7.5861    -2.3285     2.1549 Cl      
  26 H26           -1.2716     2.3276    -0.1719 H       
  27 H27            2.9233     1.9550     0.6212 H       
  28 H28           -2.0609    -0.6256    -0.7291 H       
  29 H29           -1.9553    -1.0877     0.9866 H       
  30 H30           -2.6682     0.4777     0.5288 H       
  31 H31            2.9209     3.4054    -1.8492 H       
  32 H32            5.7958     5.5730     0.2137 H       
  33 H33            1.9294     5.0822     1.9602 H       
  34 H34            1.7616    -2.3536     1.4329 H       
  35 H35            2.5558    -4.6134     1.7401 H       
  36 H36            4.5092    -6.0790     2.1918 H       
  37 H37            6.7603    -5.0423     2.3755 H       
@<TRIPOS>BOND
   1    1    2 ar
   2    1    6 ar
   3    1   26 1
   4    2    3 ar
   5    2    7 1
   6    3    4 ar
   7    4    5 ar
   8    4   15 1
   9    5    6 ar
  10    5   27 1
  11    6    8 1
  12    7   28 1
  13    7   29 1
  14    7   30 1
  15    8    9 1
  16    9   10 ar
  17    9   14 ar
  18   10   11 ar
  19   10   31 1
  20   11   12 ar
  21   12   13 ar
  22   12   32 1
  23   13   14 ar
  24   13   24 1
  25   14   33 1
  26   15   16 am
  27   15   17 2
  28   16   18 1
  29   16   34 1
  30   18   19 ar
  31   18   23 ar
  32   19   20 ar
  33   19   35 1
  34   20   21 ar
  35   20   36 1
  36   21   22 ar
  37   21   37 1
  38   22   23 ar
  39   22   25 1

#	End of record

