#	Name: ASD06170118
#	Creating user name:	WinNT
#	Creation time:	15. 06. 2019 21:05

#	Modifying user name:	WinNT
#	Modification time:	15. 06. 2019 21:05

#	Program:	/corina/corina34_cracker 3.40 0067  02.08.2006

@<TRIPOS>MOLECULE
ASD06170118
  73   77    0    0    0
SMALL
NO_CHARGES


@<TRIPOS>ATOM
   1 N1             0.0139     1.2330     0.0544 N.pl3   
   2 N2             0.2237    -0.1423    -0.0828 N.am    
   3 C3             1.5505    -0.3818    -0.0305 C.2     
   4 C4             2.2043     0.9240     0.1502 C.2     
   5 C5             1.1947     1.8656     0.1930 C.2     
   6 C6             3.6458     1.1763     0.2632 C.2     
   7 O7             4.0549     2.3128     0.4115 O.2     
   8 N8             4.5165     0.1493     0.2028 N.am    
   9 C9            -0.7745    -1.1082    -0.2469 C.ar    
  10 C10           -1.7483    -0.9437    -1.2234 C.ar    
  11 C11           -2.7323    -1.8995    -1.3832 C.ar    
  12 C12           -2.7486    -3.0194    -0.5721 C.ar    
  13 C13           -1.7808    -3.1860     0.4014 C.ar    
  14 C14           -0.7907    -2.2367     0.5625 C.ar    
  15 O15            2.0987    -1.4649    -0.1154 O.2     
  16 C16            1.3828     3.3509     0.3650 C.3     
  17 C17           -1.2957     1.8894     0.0430 C.3     
  18 C18           -1.8020     2.0426     1.4786 C.3     
  19 C19           -3.2214     2.6135     1.4606 C.3     
  20 C20           -1.8109     0.6752     2.1649 C.3     
  21 O21           -0.9409     2.9297     2.1953 O.3     
  22 C22            5.8944     0.3983     0.2082 C.ar    
  23 C23            6.4078     1.4467     0.9608 C.ar    
  24 C24            7.7682     1.6914     0.9659 C.ar    
  25 C25            8.6209     0.8883     0.2180 C.ar    
  26 C26            8.1073    -0.1580    -0.5328 C.ar    
  27 C27            6.7483    -0.4062    -0.5341 C.ar    
  28 F28            8.2686     2.7111     1.6972 F       
  29 O29            9.9595     1.1289     0.2224 O.3     
  30 N30           12.1357    -0.4955     3.2707 N.ar    
  31 C31           10.8276    -0.5763     3.2111 C.ar    
  32 N32           10.1185    -0.0508     2.2246 N.ar    
  33 C33           10.6972     0.5974     1.2243 C.ar    
  34 C34           12.1045     0.7184     1.2311 C.ar    
  35 C35           12.7974     1.3867     0.2129 C.ar    
  36 C36           14.1591     1.4733     0.2700 C.ar    
  37 C37           14.8697     0.9012     1.3352 C.ar    
  38 C38           14.2177     0.2439     2.3408 C.ar    
  39 C39           12.8214     0.1395     2.3084 C.ar    
  40 O40           16.2241     1.0012     1.3677 O.3     
  41 C41           16.8926     0.3987     2.4777 C.3     
  42 O42           14.8335     2.1210    -0.7172 O.3     
  43 C43           14.0540     2.6822    -1.7752 C.3     
  44 H44            4.1886    -0.7624     0.1556 H       
  45 H45           -1.7362    -0.0691    -1.8570 H       
  46 H46           -3.4900    -1.7720    -2.1421 H       
  47 H47           -3.5192    -3.7654    -0.6991 H       
  48 H48           -1.7968    -4.0614     1.0337 H       
  49 H49           -0.0323    -2.3697     1.3198 H       
  50 H50            1.3676     3.5986     1.4264 H       
  51 H51            2.3399     3.6480    -0.0637 H       
  52 H52            0.5770     3.8805    -0.1432 H       
  53 H53           -1.2050     2.8733    -0.4173 H       
  54 H54           -2.0002     1.2847    -0.5281 H       
  55 H55           -3.8783     1.9369     0.9140 H       
  56 H56           -3.5821     2.7227     2.4834 H       
  57 H57           -3.2151     3.5877     0.9717 H       
  58 H58           -0.7997     0.2685     2.1777 H       
  59 H59           -2.1716     0.7844     3.1877 H       
  60 H60           -2.4678    -0.0014     1.6183 H       
  61 H61           -0.8866     3.8174     1.8156 H       
  62 H62            5.7444     2.0706     1.5414 H       
  63 H63            8.7704    -0.7815    -1.1141 H       
  64 H64            6.3495    -1.2240    -1.1161 H       
  65 H65           10.3062    -1.0949     4.0020 H       
  66 H66           12.2584     1.8300    -0.6114 H       
  67 H67           14.7761    -0.1922     3.1559 H       
  68 H68           16.5429     0.8550     3.4038 H       
  69 H69           16.6773    -0.6697     2.4952 H       
  70 H70           17.9675     0.5512     2.3809 H       
  71 H71           14.7135     3.1686    -2.4938 H       
  72 H72           13.4944     1.8906    -2.2735 H       
  73 H73           13.3594     3.4154    -1.3652 H       
@<TRIPOS>BOND
   1    1    2 1
   2    1    5 1
   3    1   17 1
   4    2    3 am
   5    2    9 1
   6    3    4 1
   7    3   15 2
   8    4    5 2
   9    4    6 1
  10    5   16 1
  11    6    7 2
  12    6    8 am
  13    8   22 1
  14    8   44 1
  15    9   10 ar
  16    9   14 ar
  17   10   11 ar
  18   10   45 1
  19   11   12 ar
  20   11   46 1
  21   12   13 ar
  22   12   47 1
  23   13   14 ar
  24   13   48 1
  25   14   49 1
  26   16   50 1
  27   16   51 1
  28   16   52 1
  29   17   18 1
  30   17   53 1
  31   17   54 1
  32   18   19 1
  33   18   20 1
  34   18   21 1
  35   19   55 1
  36   19   56 1
  37   19   57 1
  38   20   58 1
  39   20   59 1
  40   20   60 1
  41   21   61 1
  42   22   23 ar
  43   22   27 ar
  44   23   24 ar
  45   23   62 1
  46   24   25 ar
  47   24   28 1
  48   25   26 ar
  49   25   29 1
  50   26   27 ar
  51   26   63 1
  52   27   64 1
  53   29   33 1
  54   30   31 ar
  55   30   39 ar
  56   31   32 ar
  57   31   65 1
  58   32   33 ar
  59   33   34 ar
  60   34   35 ar
  61   34   39 ar
  62   35   36 ar
  63   35   66 1
  64   36   37 ar
  65   36   42 1
  66   37   38 ar
  67   37   40 1
  68   38   39 ar
  69   38   67 1
  70   40   41 1
  71   41   68 1
  72   41   69 1
  73   41   70 1
  74   42   43 1
  75   43   71 1
  76   43   72 1
  77   43   73 1

#	End of record

