#	Name: ASD01901277
#	Creating user name:	WinNT
#	Creation time:	15. 06. 2019 19:53

#	Modifying user name:	WinNT
#	Modification time:	15. 06. 2019 19:53

#	Program:	/corina/corina34_cracker 3.40 0067  02.08.2006

@<TRIPOS>MOLECULE
ASD01901277
  48   51    0    0    0
SMALL
NO_CHARGES


@<TRIPOS>ATOM
   1 C1             0.8749     1.3385     0.9668 C.ar    
   2 C2             0.8319    -0.0380     0.8926 C.ar    
   3 C3             0.9076    -0.6707    -0.3357 C.ar    
   4 C4             1.0266     0.0712    -1.4978 C.ar    
   5 C5             1.0704     1.4484    -1.4392 C.ar    
   6 C6             0.9949     2.0944    -0.2024 C.ar    
   7 C7             1.0403     3.5240    -0.1334 C.1     
   8 C8             1.0774     4.6961    -0.0769 C.1     
   9 C9             1.1228     6.1257    -0.0079 C.ar    
  10 C10            1.1016     8.1629     1.2446 C.ar    
  11 C11            1.0534     6.7812     1.2302 C.ar    
  12 C12            1.2426     6.8881    -1.1720 C.ar    
  13 N13            1.2855     8.2028    -1.1123 N.ar    
  14 C14            1.2174     8.8521     0.0394 C.ar    
  15 N15            1.2666    10.2477     0.0466 N.am    
  16 N16            2.5914    12.1976     0.1435 N.am    
  17 C17            2.4579    10.8591     0.1306 C.2     
  18 C18            0.1147    10.9468    -0.0366 C.2     
  19 C19            3.9259    12.7948     0.2373 C.3     
  20 O20           -0.9552    10.3747    -0.1167 O.2     
  21 O21            3.4599    10.1738     0.1984 O.2     
  22 C22            4.5978    12.3407     1.5347 C.3     
  23 C23            4.7700    12.3476    -0.9578 C.3     
  24 F24            1.0373     8.8368     2.4137 F       
  25 N25           -0.0995    14.5304    -0.0421 N.pl3   
  26 C26            1.2450    14.3543     0.0569 C.2     
  27 C27            0.1830    12.4179    -0.0278 C.2     
  28 N28           -0.6963    13.3906    -0.0895 N.2     
  29 C29            1.4677    13.0208     0.0686 C.2     
  30 C30           -0.7728    15.8308    -0.0872 C.3     
  31 H31            0.8115     1.8312     1.9258 H       
  32 H32            0.7391    -0.6235     1.7954 H       
  33 H33            0.8741    -1.7490    -0.3877 H       
  34 H34            1.0856    -0.4295    -2.4529 H       
  35 H35            1.1636     2.0261    -2.3469 H       
  36 H36            0.9642     6.2208     2.1491 H       
  37 H37            1.3010     6.3944    -2.1308 H       
  38 H38            3.8388    13.8813     0.2343 H       
  39 H39            4.6849    11.2542     1.5378 H       
  40 H40            5.5906    12.7850     1.6046 H       
  41 H41            3.9964    12.6594     2.3862 H       
  42 H42            4.2914    12.6711    -1.8821 H       
  43 H43            5.7629    12.7919    -0.8880 H       
  44 H44            4.8571    11.2610    -0.9547 H       
  45 H45            1.9927    15.1315     0.1144 H       
  46 H46           -0.8638    16.1571    -1.1232 H       
  47 H47           -1.7655    15.7414     0.3541 H       
  48 H48           -0.1901    16.5613     0.4740 H       
@<TRIPOS>BOND
   1    1    2 ar
   2    1    6 ar
   3    1   31 1
   4    2    3 ar
   5    2   32 1
   6    3    4 ar
   7    3   33 1
   8    4    5 ar
   9    4   34 1
  10    5    6 ar
  11    5   35 1
  12    6    7 1
  13    7    8 3
  14    8    9 1
  15    9   12 ar
  16    9   11 ar
  17   10   11 ar
  18   10   14 ar
  19   10   24 1
  20   11   36 1
  21   12   13 ar
  22   12   37 1
  23   13   14 ar
  24   14   15 1
  25   15   18 am
  26   15   17 am
  27   16   17 am
  28   16   29 1
  29   16   19 1
  30   17   21 2
  31   18   27 1
  32   18   20 2
  33   19   22 1
  34   19   23 1
  35   19   38 1
  36   22   39 1
  37   22   40 1
  38   22   41 1
  39   23   42 1
  40   23   43 1
  41   23   44 1
  42   25   26 1
  43   25   28 1
  44   25   30 1
  45   26   29 2
  46   26   45 1
  47   27   28 2
  48   27   29 1
  49   30   46 1
  50   30   47 1
  51   30   48 1

#	End of record

