#	Name: ASD03130007
#	Creating user name:	WinNT
#	Creation time:	15. 06. 2019 20:33

#	Modifying user name:	WinNT
#	Modification time:	15. 06. 2019 20:33

#	Program:	/corina/corina34_cracker 3.40 0067  02.08.2006

@<TRIPOS>MOLECULE
ASD03130007
 337  338    0    0    0
SMALL
NO_CHARGES


@<TRIPOS>ATOM
   1 N1            -3.4169     0.0378    19.7030 N.am    
   2 C2           -15.2743   -59.3902    28.2098 C.2     
   3 O3           -16.4320   -59.0462    28.1955 O.2     
   4 C4           -14.8907   -60.7198    28.8065 C.3     
   5 C5           -16.1454   -61.4301    29.3184 C.3     
   6 C6           -15.7559   -62.7800    29.9242 C.3     
   7 C7           -17.0106   -63.4904    30.4361 C.3     
   8 C8           -16.6211   -64.8403    31.0419 C.3     
   9 C9           -17.8759   -65.5506    31.5538 C.3     
  10 C10          -17.4864   -66.9005    32.1596 C.3     
  11 C11          -18.7411   -67.6108    32.6715 C.3     
  12 C12          -18.3516   -68.9607    33.2773 C.3     
  13 C13          -19.6063   -69.6711    33.7891 C.3     
  14 C14          -19.2169   -71.0209    34.3949 C.3     
  15 C15          -20.4716   -71.7313    34.9068 C.3     
  16 C16          -20.0821   -73.0812    35.5126 C.3     
  17 C17          -21.3368   -73.7915    36.0245 C.3     
  18 C18          -20.9473   -75.1414    36.6303 C.3     
  19 C19           -4.8992   -38.2591    21.5341 C.3     
  20 C20           -6.3867   -37.9882    21.2998 C.3     
  21 C21           -6.5426   -36.8836    20.2865 C.2     
  22 N22           -7.0318   -39.2046    20.7993 N.am    
  23 O23           -7.1342   -37.0920    19.2485 O.2     
  24 C24           -4.2566   -38.6869    20.2398 C.2     
  25 N25           -2.9219   -38.8628    20.1761 N.am    
  26 O26           -4.9405   -38.8728    19.2556 O.2     
  27 C27          -14.6115   -57.1725    27.0423 C.3     
  28 C28          -14.2279   -58.5021    27.6390 C.2     
  29 N29          -13.4068   -56.4905    26.5508 N.3     
  30 O30          -13.0702   -58.8461    27.6533 O.2     
  31 C31          -12.2870   -54.9094    24.0170 C.3     
  32 C32          -12.5349   -54.5191    25.4755 C.3     
  33 C33          -12.7281   -53.0275    25.5704 C.2     
  34 N34          -13.7396   -55.2011    25.9669 N.3     
  35 O35          -13.7670   -52.5770    26.0048 O.2     
  36 N36          -11.4141   -58.2245    22.4002 N.pl3   
  37 C37          -11.1539   -58.8069    21.1824 C.2     
  38 N38          -10.8819   -60.0798    21.1135 N.2     
  39 N39          -11.1806   -58.0467    20.0371 N.pl3   
  40 C40          -11.9677   -56.4035    23.9361 C.3     
  41 C41          -11.7199   -56.7939    22.4777 C.3     
  42 C42          -11.9340   -50.7443    25.2650 C.3     
  43 C43          -11.0495   -50.0580    24.2562 C.2     
  44 N44          -11.7463   -52.1942    25.1727 N.am    
  45 O45          -10.3329   -50.7153    23.5315 O.2     
  46 C46          -12.2516   -52.0817    28.2581 C.ar    
  47 C47          -13.1347   -52.6236    29.1732 C.ar    
  48 C48          -14.2941   -51.9456    29.5000 C.ar    
  49 C49          -14.5703   -50.7254    28.9119 C.ar    
  50 C50          -13.6875   -50.1837    27.9964 C.ar    
  51 C51          -12.5281   -50.8618    27.6697 C.ar    
  52 C52          -11.5652   -50.2708    26.6724 C.3     
  53 C53          -10.9061   -48.0004    21.8247 C.3     
  54 C54          -10.1950   -48.0465    23.1787 C.3     
  55 C55           -9.9022   -46.6422    23.6404 C.2     
  56 N56          -11.0549   -48.7137    24.1594 N.am    
  57 O57          -10.3661   -46.2384    24.6857 O.2     
  58 C58          -11.0892   -49.4032    21.3054 C.2     
  59 N59          -12.2001   -50.1893    21.4527 N.pl3   
  60 C60          -11.9424   -51.3641    20.8386 C.2     
  61 N61          -10.7393   -51.3179    20.3351 N.2     
  62 C62          -10.1935   -50.1222    20.6023 C.2     
  63 C63           -7.6472   -44.4862    24.2984 C.3     
  64 C64           -8.8401   -44.4698    23.3405 C.3     
  65 C65           -8.5155   -43.6066    22.1487 C.2     
  66 N66           -9.1248   -45.8350    22.8917 N.am    
  67 O67           -8.3021   -44.1178    21.0698 O.2     
  68 C68           -8.0375   -45.2136    25.5866 C.3     
  69 C69           -6.4732   -45.2121    23.6385 C.3     
  70 C70           -9.2490   -41.1502    20.2528 C.3     
  71 C71           -8.0435   -41.4342    21.1511 C.3     
  72 C72           -7.4828   -40.1334    21.6655 C.2     
  73 N73           -8.4623   -42.2665    22.2817 N.am    
  74 O74           -7.4375   -39.9223    22.8590 O.2     
  75 C75           -9.7416   -42.4587    19.6315 C.3     
  76 C76          -10.9290   -42.1790    18.7467 C.2     
  77 O77          -11.3407   -41.0447    18.6249 O.2     
  78 N78          -11.5333   -43.1893    18.0906 N.am    
  79 C79           -7.5246   -33.8974    19.7532 C.3     
  80 C80           -6.1760   -34.5905    19.5488 C.3     
  81 C81           -5.0644   -33.5880    19.7235 C.2     
  82 N82           -6.0245   -35.6642    20.5338 N.am    
  83 O83           -4.2280   -33.7541    20.5859 O.2     
  84 C84           -8.6554   -34.8837    19.4540 C.3     
  85 C85          -10.0006   -34.2307    19.7777 C.3     
  86 C86           -8.6183   -35.2683    17.9736 C.3     
  87 C87           -2.6852   -31.9988    18.3163 C.3     
  88 C88           -3.9192   -31.5323    19.0912 C.3     
  89 C89           -4.3648   -30.1917    18.5665 C.2     
  90 N90           -4.9998   -32.5068    18.9214 N.am    
  91 O91           -5.4755   -30.0630    18.0968 O.2     
  92 O92           -2.9747   -32.0023    16.9169 O.3     
  93 C93           -4.7345   -27.0888    19.2002 C.3     
  94 C94           -3.9620   -27.8325    18.1089 C.3     
  95 C95           -2.7552   -27.0239    17.7077 C.2     
  96 N96           -3.5288   -29.1358    18.6190 N.am    
  97 O97           -1.6430   -27.4902    17.8354 O.2     
  98 C98           -6.0242   -27.8475    19.5193 C.3     
  99 C99           -6.7851   -27.1150    20.5942 C.2     
 100 O100          -6.3397   -26.0872    21.0593 O.2     
 101 N101          -7.9606   -27.6019    21.0387 N.am    
 102 C102          -1.3318   -25.3623    15.3884 C.3     
 103 C103          -1.7390   -24.9963    16.8171 C.3     
 104 C104          -2.0733   -23.5283    16.8837 C.2     
 105 N105          -2.9121   -25.7824    17.2071 N.am    
 106 O106          -3.2307   -23.1724    16.9516 O.2     
 107 C107          -0.8595   -26.8171    15.3496 C.3     
 108 C108          -2.5326   -25.1909    14.4560 C.3     
 109 C109          -1.4918   -20.8546    18.5206 C.3     
 110 C110          -1.4037   -21.1901    17.0304 C.3     
 111 C111          -0.3226   -20.3573    16.3911 C.2     
 112 N112          -1.0860   -22.6110    16.8677 N.am    
 113 O113           0.6204   -20.8974    15.8526 O.2     
 114 C114          -2.6695   -21.6066    19.1438 C.3     
 115 C115          -2.7563   -21.2761    20.6116 C.2     
 116 O116          -1.9582   -20.5171    21.1082 O.2     
 117 O117          -3.7204   -21.8251    21.3673 O.3     
 118 C118           0.3533   -18.0443    14.3032 C.3     
 119 C119           0.6473   -18.2026    15.7963 C.3     
 120 C120           0.6861   -16.8441    16.4474 C.2     
 121 N121          -0.4036   -19.0122    16.4178 N.am    
 122 O122          -0.0879   -16.5783    17.3425 O.2     
 123 C123           0.4370   -19.4103    13.6192 C.3     
 124 C124           0.1474   -19.2544    12.1486 C.2     
 125 O125          -0.1014   -18.1585    11.6924 O.2     
 126 N126           0.1649   -20.3327    11.3403 N.am    
 127 C127           3.1082   -14.0891    16.5645 C.3     
 128 C128           1.6934   -14.6447    16.7392 C.3     
 129 C129           0.6965   -13.6686    16.1695 C.2     
 130 N130           1.5809   -15.9244    16.0351 N.am    
 131 O131          -0.0359   -14.0085    15.2645 O.2     
 132 C132           4.0960   -15.0115    17.2311 C.2     
 133 O133           3.7172   -16.0470    17.7252 O.2     
 134 O134           5.3966   -14.6829    17.2757 O.3     
 135 C135          -0.3504   -11.4691    16.1120 C.3     
 136 C136          -0.2347   -10.1526    16.8363 C.2     
 137 N137           0.6187   -12.4179    16.6658 N.am    
 138 O138           0.5773   -10.0200    17.7274 O.2     
 139 C139           0.1874    -7.0045    16.5583 C.3     
 140 C140          -0.9212    -7.8428    17.1980 C.3     
 141 C141          -2.2296    -7.1011    17.1040 C.2     
 142 N142          -1.0336    -9.1226    16.4939 N.am    
 143 O143          -3.1641    -7.5930    16.5076 O.2     
 144 N144           3.9340    -7.5260    16.3204 N.pl3   
 145 C145           5.0837    -6.9550    15.8281 C.2     
 146 N146           5.0256    -5.8219    15.1866 N.2     
 147 N147           6.2947    -7.5792    16.0125 N.pl3   
 148 C148           1.5350    -7.6992    16.7635 C.3     
 149 C149           2.6436    -6.8608    16.1239 C.3     
 150 C150          -4.5686    -5.6423    18.7063 C.3     
 151 C151          -3.6334    -5.1700    17.5914 C.3     
 152 C152          -3.3841    -3.6910    17.7377 C.2     
 153 N153          -2.3614    -5.8911    17.6827 N.am    
 154 O154          -2.2550    -3.2797    17.9022 O.2     
 155 O155          -4.0189    -5.2800    19.9746 O.3     
 156 C156          -4.7226    -7.1628    18.6329 C.3     
 157 C157          -5.2989    -0.6103    17.1427 C.3     
 158 C158          -4.1733    -1.3875    17.8282 C.3     
 159 C159          -4.1326    -1.0273    19.2910 C.2     
 160 N160          -4.4157    -2.8253    17.6859 N.am    
 161 O161          -4.7439    -1.6959    20.0974 O.2     
 162 C162          -6.6160    -0.8648    17.8785 C.3     
 163 C163          -4.9782     0.8854    17.1738 C.3     
 164 C164          -6.0459     1.6523    16.3908 C.3     
 165 H165          -2.8696     0.5285    19.0702 H       
 166 H166          -3.4523     0.3160    20.6316 H       
 167 H167         -14.4101   -61.3345    28.0454 H       
 168 H168         -14.1999   -60.5607    29.6345 H       
 169 H169         -16.6259   -60.8154    30.0795 H       
 170 H170         -16.8362   -61.5892    28.4904 H       
 171 H171         -15.2753   -63.3947    29.1631 H       
 172 H172         -15.0651   -62.6209    30.7522 H       
 173 H173         -17.4912   -62.8756    31.1972 H       
 174 H174         -17.7014   -63.6495    29.6081 H       
 175 H175         -16.1406   -65.4550    30.2808 H       
 176 H176         -15.9304   -64.6812    31.8699 H       
 177 H177         -18.3564   -64.9359    32.3149 H       
 178 H178         -18.5666   -65.7097    30.7258 H       
 179 H179         -17.0058   -67.5152    31.3985 H       
 180 H180         -16.7956   -66.7414    32.9876 H       
 181 H181         -19.2217   -66.9961    33.4326 H       
 182 H182         -19.4319   -67.7699    31.8434 H       
 183 H183         -17.8710   -69.5754    32.5162 H       
 184 H184         -17.6608   -68.8016    34.1053 H       
 185 H185         -20.0869   -69.0563    34.5502 H       
 186 H186         -20.2971   -69.8301    32.9611 H       
 187 H187         -18.7363   -71.6357    33.6338 H       
 188 H188         -18.5261   -70.8619    35.2230 H       
 189 H189         -20.9521   -71.1166    35.6679 H       
 190 H190         -21.1623   -71.8904    34.0788 H       
 191 H191         -19.6015   -73.6959    34.7515 H       
 192 H192         -19.3913   -72.9221    36.3406 H       
 193 H193         -21.8174   -73.1768    36.7856 H       
 194 H194         -22.0276   -73.9506    35.1965 H       
 195 H195         -20.4668   -75.7561    35.8692 H       
 196 H196         -20.2565   -74.9823    37.4583 H       
 197 H197         -21.8412   -75.6475    36.9950 H       
 198 H198          -4.4172   -37.3512    21.8964 H       
 199 H199          -4.7864   -39.0508    22.2748 H       
 200 H200          -6.8537   -37.6890    22.2381 H       
 201 H201          -7.1342   -39.3415    19.8445 H       
 202 H202          -2.3749   -38.7141    20.9632 H       
 203 H203          -2.5082   -39.1381    19.3430 H       
 204 H204         -15.3023   -57.3316    26.2142 H       
 205 H205         -15.0921   -56.5578    27.8034 H       
 206 H206         -12.7234   -56.3889    27.2861 H       
 207 H207         -13.1785   -54.6960    23.4272 H       
 208 H208         -11.4465   -54.3365    23.6254 H       
 209 H209         -11.6779   -54.8138    26.0812 H       
 210 H210         -14.4230   -55.3027    25.2316 H       
 211 H211         -11.3953   -58.7609    23.2082 H       
 212 H212         -10.6983   -60.4907    20.2542 H       
 213 H213         -11.3831   -57.0995    20.0884 H       
 214 H214         -10.9970   -58.4576    19.1779 H       
 215 H215         -11.0763   -56.6170    24.5259 H       
 216 H216         -12.8083   -56.9764    24.3278 H       
 217 H217         -10.8793   -56.2210    22.0861 H       
 218 H218         -12.6113   -56.5804    21.8879 H       
 219 H219         -12.9763   -50.4991    25.0608 H       
 220 H220         -10.9154   -52.5546    24.8253 H       
 221 H221         -11.3436   -52.6094    28.0062 H       
 222 H222         -12.9189   -53.5769    29.6326 H       
 223 H223         -14.9844   -52.3693    30.2144 H       
 224 H224         -15.4765   -50.1960    29.1667 H       
 225 H225         -13.9035   -49.2306    27.5368 H       
 226 H226         -10.5517   -50.5939    26.9104 H       
 227 H227         -11.6193   -49.1830    26.7157 H       
 228 H228         -11.8806   -47.5263    21.9421 H       
 229 H229         -10.3058   -47.4269    21.1184 H       
 230 H230          -9.2605   -48.5987    23.0796 H       
 231 H231         -11.6280   -48.1879    24.7390 H       
 232 H232         -13.0194   -49.9476    21.9123 H       
 233 H233         -12.6196   -52.2030    20.7750 H       
 234 H234          -9.2076   -49.7944    20.3075 H       
 235 H235          -7.3557   -43.4625    24.5332 H       
 236 H236          -9.7130   -44.0668    23.8541 H       
 237 H237          -8.7538   -46.1579    22.0556 H       
 238 H238          -7.2070   -45.1750    26.2915 H       
 239 H239          -8.9102   -44.7308    26.0264 H       
 240 H240          -8.2733   -46.2533    25.3596 H       
 241 H241          -6.7647   -46.2358    23.4036 H       
 242 H242          -6.1951   -44.6939    22.7207 H       
 243 H243          -5.6233   -45.2238    24.3209 H       
 244 H244         -10.0482   -40.7065    20.8466 H       
 245 H245          -8.9578   -40.4593    19.4616 H       
 246 H246          -7.2787   -41.9581    20.5779 H       
 247 H247          -8.7013   -41.8530    23.1260 H       
 248 H248          -8.9425   -42.9024    19.0377 H       
 249 H249         -10.0328   -43.1496    20.4227 H       
 250 H250         -11.2040   -44.0965    18.1879 H       
 251 H251         -12.2976   -43.0093    17.5210 H       
 252 H252          -7.6045   -33.5552    20.7850 H       
 253 H253          -7.5999   -33.0433    19.0802 H       
 254 H254          -6.1319   -35.0104    18.5439 H       
 255 H255          -5.5513   -35.4976    21.3640 H       
 256 H256          -8.5290   -35.7775    20.0649 H       
 257 H257         -10.1270   -33.3368    19.1667 H       
 258 H258         -10.8062   -34.9333    19.5645 H       
 259 H259         -10.0271   -33.9566    20.8323 H       
 260 H260          -8.7446   -34.3745    17.3627 H       
 261 H261          -7.6599   -35.7335    17.7430 H       
 262 H262          -9.4238   -35.9710    17.7604 H       
 263 H263          -1.8545   -31.3213    18.5138 H       
 264 H264          -2.4160   -33.0061    18.6341 H       
 265 H265          -3.6721   -31.4445    20.1492 H       
 266 H266          -5.6687   -32.3740    18.2316 H       
 267 H267          -2.2354   -32.2882    16.3631 H       
 268 H268          -4.1207   -27.0218    20.0984 H       
 269 H269          -4.9798   -26.0854    18.8521 H       
 270 H270          -4.6066   -27.9777    17.2421 H       
 271 H271          -2.6405   -29.2387    18.9946 H       
 272 H272          -6.6380   -27.9146    18.6211 H       
 273 H273          -5.7789   -28.8509    19.8674 H       
 274 H274          -8.3168   -28.4239    20.6668 H       
 275 H275          -8.4504   -27.1304    21.7306 H       
 276 H276          -0.5226   -24.7088    15.0626 H       
 277 H277          -0.9146   -25.2123    17.4966 H       
 278 H278          -3.8017   -25.4094    17.1050 H       
 279 H279          -0.4484   -27.0394    14.3649 H       
 280 H280          -0.0909   -26.9699    16.1072 H       
 281 H281          -1.7028   -27.4783    15.5490 H       
 282 H282          -3.3419   -25.8444    14.7819 H       
 283 H283          -2.8691   -24.1545    14.4837 H       
 284 H284          -2.2425   -25.4516    13.4382 H       
 285 H285          -0.5675   -21.1528    19.0154 H       
 286 H286          -1.6399   -19.7817    18.6433 H       
 287 H287          -2.3591   -20.9743    16.5523 H       
 288 H288          -0.1652   -22.8915    16.7485 H       
 289 H289          -3.5938   -21.3084    18.6490 H       
 290 H290          -2.5214   -22.6795    19.0211 H       
 291 H291          -3.7357   -21.5830    22.3033 H       
 292 H292          -0.6474   -17.6327    14.1715 H       
 293 H293           1.0849   -17.3698    13.8583 H       
 294 H294           1.6107   -18.6956    15.9266 H       
 295 H295          -1.1578   -18.5802    16.8485 H       
 296 H296           1.4377   -19.8219    13.7509 H       
 297 H297          -0.2946   -20.0848    14.0641 H       
 298 H298           0.3639   -21.2092    11.7051 H       
 299 H299          -0.0215   -20.2323    10.3936 H       
 300 H300           3.3405   -14.0143    15.5022 H       
 301 H301           3.1693   -13.1008    17.0202 H       
 302 H302           1.4901   -14.7943    17.7996 H       
 303 H303           2.1504   -16.1099    15.2721 H       
 304 H304           5.9922   -15.3062    17.7138 H       
 305 H305          -1.3584   -11.8649    16.2365 H       
 306 H306          -0.1472   -11.3194    15.0516 H       
 307 H307           1.2044   -12.1461    17.3897 H       
 308 H308          -0.0076    -6.8978    15.4912 H       
 309 H309           0.2120    -6.0190    17.0235 H       
 310 H310          -0.6809    -8.0244    18.2455 H       
 311 H311          -1.6831    -9.2286    15.7812 H       
 312 H312           3.9772    -8.3693    16.7978 H       
 313 H313           5.8368    -5.4190    14.8393 H       
 314 H314           6.3379    -8.4225    16.4899 H       
 315 H315           7.1059    -7.1764    15.6652 H       
 316 H316           1.7300    -7.8059    17.8306 H       
 317 H317           1.5104    -8.6846    16.2984 H       
 318 H318           2.6682    -5.8754    16.5890 H       
 319 H319           2.4486    -6.7541    15.0568 H       
 320 H320          -5.5445    -5.1721    18.5856 H       
 321 H321          -4.0939    -5.3668    16.6232 H       
 322 H322          -1.6140    -5.4976    18.1597 H       
 323 H323          -3.1488    -5.6637    20.1503 H       
 324 H324          -3.7467    -7.6331    18.7536 H       
 325 H325          -5.3889    -7.4993    19.4272 H       
 326 H326          -5.1419    -7.4392    17.6655 H       
 327 H327          -5.3909    -0.9408    16.1081 H       
 328 H328          -3.2206    -1.1320    17.3644 H       
 329 H329          -5.3187    -3.1542    17.5544 H       
 330 H330          -7.4179    -0.3111    17.3901 H       
 331 H331          -6.8445    -1.9304    17.8564 H       
 332 H332          -6.5240    -0.5344    18.9131 H       
 333 H333          -4.9655     1.2329    18.2068 H       
 334 H334          -4.0019     1.0572    16.7206 H       
 335 H335          -7.0222     1.4805    16.8440 H       
 336 H336          -5.8174     2.7178    16.4129 H       
 337 H337          -6.0586     1.3048    15.3578 H       
@<TRIPOS>BOND
   1    1  159 am
   2    1  165 1
   3    1  166 1
   4    2   28 1
   5    2    3 2
   6    2    4 1
   7    4    5 1
   8    4  167 1
   9    4  168 1
  10    5    6 1
  11    5  169 1
  12    5  170 1
  13    6    7 1
  14    6  171 1
  15    6  172 1
  16    7    8 1
  17    7  173 1
  18    7  174 1
  19    8    9 1
  20    8  175 1
  21    8  176 1
  22    9   10 1
  23    9  177 1
  24    9  178 1
  25   10   11 1
  26   10  179 1
  27   10  180 1
  28   11   12 1
  29   11  181 1
  30   11  182 1
  31   12   13 1
  32   12  183 1
  33   12  184 1
  34   13   14 1
  35   13  185 1
  36   13  186 1
  37   14   15 1
  38   14  187 1
  39   14  188 1
  40   15   16 1
  41   15  189 1
  42   15  190 1
  43   16   17 1
  44   16  191 1
  45   16  192 1
  46   17   18 1
  47   17  193 1
  48   17  194 1
  49   18  195 1
  50   18  196 1
  51   18  197 1
  52   19   24 1
  53   19   20 1
  54   19  198 1
  55   19  199 1
  56   20   22 1
  57   20   21 1
  58   20  200 1
  59   21   23 2
  60   21   82 am
  61   22   72 am
  62   22  201 1
  63   24   25 am
  64   24   26 2
  65   25  202 1
  66   25  203 1
  67   27   28 1
  68   27   29 1
  69   27  204 1
  70   27  205 1
  71   28   30 2
  72   29   34 1
  73   29  206 1
  74   31   40 1
  75   31   32 1
  76   31  207 1
  77   31  208 1
  78   32   34 1
  79   32   33 1
  80   32  209 1
  81   33   35 2
  82   33   44 am
  83   34  210 1
  84   36   41 1
  85   36   37 1
  86   36  211 1
  87   37   38 2
  88   37   39 1
  89   38  212 1
  90   39  213 1
  91   39  214 1
  92   40   41 1
  93   40  215 1
  94   40  216 1
  95   41  217 1
  96   41  218 1
  97   42   43 1
  98   42   44 1
  99   42   52 1
 100   42  219 1
 101   43   45 2
 102   43   56 am
 103   44  220 1
 104   46   47 ar
 105   46   51 ar
 106   46  221 1
 107   47   48 ar
 108   47  222 1
 109   48   49 ar
 110   48  223 1
 111   49   50 ar
 112   49  224 1
 113   50   51 ar
 114   50  225 1
 115   51   52 1
 116   52  226 1
 117   52  227 1
 118   53   58 1
 119   53   54 1
 120   53  228 1
 121   53  229 1
 122   54   55 1
 123   54   56 1
 124   54  230 1
 125   55   57 2
 126   55   66 am
 127   56  231 1
 128   58   59 1
 129   58   62 2
 130   59   60 1
 131   59  232 1
 132   60   61 2
 133   60  233 1
 134   61   62 1
 135   62  234 1
 136   63   68 1
 137   63   69 1
 138   63   64 1
 139   63  235 1
 140   64   66 1
 141   64   65 1
 142   64  236 1
 143   65   67 2
 144   65   73 am
 145   66  237 1
 146   68  238 1
 147   68  239 1
 148   68  240 1
 149   69  241 1
 150   69  242 1
 151   69  243 1
 152   70   75 1
 153   70   71 1
 154   70  244 1
 155   70  245 1
 156   71   73 1
 157   71   72 1
 158   71  246 1
 159   72   74 2
 160   73  247 1
 161   75   76 1
 162   75  248 1
 163   75  249 1
 164   76   77 2
 165   76   78 am
 166   78  250 1
 167   78  251 1
 168   79   84 1
 169   79   80 1
 170   79  252 1
 171   79  253 1
 172   80   82 1
 173   80   81 1
 174   80  254 1
 175   81   83 2
 176   81   90 am
 177   82  255 1
 178   84   85 1
 179   84   86 1
 180   84  256 1
 181   85  257 1
 182   85  258 1
 183   85  259 1
 184   86  260 1
 185   86  261 1
 186   86  262 1
 187   87   92 1
 188   87   88 1
 189   87  263 1
 190   87  264 1
 191   88   90 1
 192   88   89 1
 193   88  265 1
 194   89   91 2
 195   89   96 am
 196   90  266 1
 197   92  267 1
 198   93   98 1
 199   93   94 1
 200   93  268 1
 201   93  269 1
 202   94   96 1
 203   94   95 1
 204   94  270 1
 205   95   97 2
 206   95  105 am
 207   96  271 1
 208   98   99 1
 209   98  272 1
 210   98  273 1
 211   99  100 2
 212   99  101 am
 213  101  274 1
 214  101  275 1
 215  102  107 1
 216  102  108 1
 217  102  103 1
 218  102  276 1
 219  103  105 1
 220  103  104 1
 221  103  277 1
 222  104  106 2
 223  104  112 am
 224  105  278 1
 225  107  279 1
 226  107  280 1
 227  107  281 1
 228  108  282 1
 229  108  283 1
 230  108  284 1
 231  109  114 1
 232  109  110 1
 233  109  285 1
 234  109  286 1
 235  110  112 1
 236  110  111 1
 237  110  287 1
 238  111  113 2
 239  111  121 am
 240  112  288 1
 241  114  115 1
 242  114  289 1
 243  114  290 1
 244  115  116 2
 245  115  117 1
 246  117  291 1
 247  118  123 1
 248  118  119 1
 249  118  292 1
 250  118  293 1
 251  119  121 1
 252  119  120 1
 253  119  294 1
 254  120  122 2
 255  120  130 am
 256  121  295 1
 257  123  124 1
 258  123  296 1
 259  123  297 1
 260  124  125 2
 261  124  126 am
 262  126  298 1
 263  126  299 1
 264  127  132 1
 265  127  128 1
 266  127  300 1
 267  127  301 1
 268  128  129 1
 269  128  130 1
 270  128  302 1
 271  129  131 2
 272  129  137 am
 273  130  303 1
 274  132  133 2
 275  132  134 1
 276  134  304 1
 277  135  136 1
 278  135  137 1
 279  135  305 1
 280  135  306 1
 281  136  138 2
 282  136  142 am
 283  137  307 1
 284  139  148 1
 285  139  140 1
 286  139  308 1
 287  139  309 1
 288  140  142 1
 289  140  141 1
 290  140  310 1
 291  141  143 2
 292  141  153 am
 293  142  311 1
 294  144  149 1
 295  144  145 1
 296  144  312 1
 297  145  146 2
 298  145  147 1
 299  146  313 1
 300  147  314 1
 301  147  315 1
 302  148  149 1
 303  148  316 1
 304  148  317 1
 305  149  318 1
 306  149  319 1
 307  150  151 1
 308  150  155 1
 309  150  156 1
 310  150  320 1
 311  151  153 1
 312  151  152 1
 313  151  321 1
 314  152  154 2
 315  152  160 am
 316  153  322 1
 317  155  323 1
 318  156  324 1
 319  156  325 1
 320  156  326 1
 321  157  158 1
 322  157  162 1
 323  157  163 1
 324  157  327 1
 325  158  160 1
 326  158  159 1
 327  158  328 1
 328  159  161 2
 329  160  329 1
 330  162  330 1
 331  162  331 1
 332  162  332 1
 333  163  164 1
 334  163  333 1
 335  163  334 1
 336  164  335 1
 337  164  336 1
 338  164  337 1

#	End of record

