#	Name: ASD02198009
#	Creating user name:	WinNT
#	Creation time:	15. 06. 2019 20:18

#	Modifying user name:	WinNT
#	Modification time:	15. 06. 2019 20:18

#	Program:	/corina/corina34_cracker 3.40 0067  02.08.2006

@<TRIPOS>MOLECULE
ASD02198009
  32   34    0    0    0
SMALL
NO_CHARGES


@<TRIPOS>ATOM
   1 C1            -0.6120     0.9589    -0.2686 C.2     
   2 C2            -1.1270    -0.3054    -0.2586 C.2     
   3 C3            -0.3662    -1.4847    -0.4057 C.2     
   4 C4            -1.0104    -2.8062    -0.2397 C.ar    
   5 C5            -2.1199    -2.9448     0.5959 C.ar    
   6 N6             0.7364     1.2356    -0.4280 N.pl3   
   7 C7            -0.5147    -3.9181    -0.9225 C.ar    
   8 C8            -1.1197    -5.1473    -0.7641 C.ar    
   9 C9            -2.2169    -5.2796     0.0704 C.ar    
  10 C10           -2.7164    -4.1791     0.7463 C.ar    
  11 C11           -1.6273     1.9832    -0.1007 C.2     
  12 C12           -2.9020     1.4476     0.0333 C.2     
  13 S13           -2.8639    -0.2593    -0.0366 S.3     
  14 Br14          -3.0407    -6.9685     0.2820 Br      
  15 O15            0.8217    -1.4147    -0.6695 O.2     
  16 C16           -1.4664     3.3990    -0.0661 C.2     
  17 C17           -2.5511     4.1958     0.0958 C.2     
  18 C18           -3.8271     3.6208     0.2285 C.2     
  19 N19           -3.9802     2.2881     0.2011 N.am    
  20 O20           -4.8021     4.3390     0.3745 O.2     
  21 C21           -0.0953     4.0079    -0.2085 C.3     
  22 H22           -2.5101    -2.0872     1.1238 H       
  23 H23            1.0178     2.1039    -0.7562 H       
  24 H24            1.3989     0.5609    -0.2115 H       
  25 H25            0.3408    -3.8160    -1.5738 H       
  26 H26           -0.7373    -6.0082    -1.2921 H       
  27 H27           -3.5722    -4.2885     1.3960 H       
  28 H28           -2.4353     5.2692     0.1231 H       
  29 H29           -4.8684     1.9094     0.2939 H       
  30 H30            0.1493     4.1091    -1.2659 H       
  31 H31           -0.0834     4.9906     0.2628 H       
  32 H32            0.6400     3.3644     0.2745 H       
@<TRIPOS>BOND
   1    1    2 2
   2    1    6 1
   3    1   11 1
   4    2    3 1
   5    2   13 1
   6    3    4 1
   7    3   15 2
   8    4    5 ar
   9    4    7 ar
  10    5   10 ar
  11    5   22 1
  12    6   23 1
  13    6   24 1
  14    7    8 ar
  15    7   25 1
  16    8    9 ar
  17    8   26 1
  18    9   10 ar
  19    9   14 1
  20   10   27 1
  21   11   12 2
  22   11   16 1
  23   12   13 1
  24   12   19 1
  25   16   17 2
  26   16   21 1
  27   17   18 1
  28   17   28 1
  29   18   19 am
  30   18   20 2
  31   19   29 1
  32   21   30 1
  33   21   31 1
  34   21   32 1

#	End of record

