#	Name: ASD01813379
#	Creating user name:	WinNT
#	Creation time:	15. 06. 2019 19:30

#	Modifying user name:	WinNT
#	Modification time:	15. 06. 2019 19:30

#	Program:	/corina/corina34_cracker 3.40 0067  02.08.2006

@<TRIPOS>MOLECULE
ASD01813379
  53   57    0    0    0
SMALL
NO_CHARGES


@<TRIPOS>ATOM
   1 C1            -0.8118     1.1798    -0.5465 C.2     
   2 C2            -0.6150    -0.1987    -0.3879 C.2     
   3 C3             0.6333    -0.7225    -0.5569 C.2     
   4 C4             1.7006     0.1291    -0.8873 C.2     
   5 N5             1.4798     1.4714    -1.0357 N.am    
   6 C6             0.2279     1.9836    -0.8647 C.2     
   7 C7             2.9844    -0.4068    -1.0614 C.2     
   8 C8             4.0282     0.4118    -1.3820 C.2     
   9 C9             3.7974     1.7915    -1.5344 C.2     
  10 C10            2.4952     2.3002    -1.3523 C.2     
  11 O11            2.2860     3.4944    -1.4827 O.2     
  12 C12            4.9006     2.6915    -1.8777 C.2     
  13 O13            4.6728     4.0132    -2.0223 O.3     
  14 O14            6.0224     2.2472    -2.0324 O.2     
  15 C15            3.2118    -1.8871    -0.8940 C.3     
  16 C16            3.1379    -2.5721    -2.2601 C.3     
  17 N17            3.3595    -4.0151    -2.0970 N.3     
  18 C18            2.2622    -4.6349    -1.3343 C.3     
  19 C19            2.4823    -6.1293    -1.3257 C.2     
  20 N20            3.3325    -6.7598    -2.1744 N.pl3   
  21 C21            4.1277    -6.0726    -3.1951 C.3     
  22 C22            3.5379    -4.6712    -3.4000 C.3     
  23 N23            1.9293    -7.0154    -0.5512 N.2     
  24 C24            2.3942    -8.2336    -0.8613 C.2     
  25 C25            3.2838    -8.0958    -1.8850 C.2     
  26 C26            4.0447    -9.1758    -2.5502 C.ar    
  27 C27            3.6735   -10.5086    -2.3688 C.ar    
  28 C28            4.3871   -11.5113    -2.9925 C.ar    
  29 C29            5.4689   -11.1976    -3.7959 C.ar    
  30 C30            5.8420    -9.8781    -3.9798 C.ar    
  31 C31            5.1332    -8.8657    -3.3664 C.ar    
  32 H32           -1.7981     1.6008    -0.4187 H       
  33 H33           -1.4449    -0.8412    -0.1335 H       
  34 H34            0.7996    -1.7829    -0.4374 H       
  35 H35            0.0647     3.0445    -0.9842 H       
  36 H36            5.0198     0.0055    -1.5168 H       
  37 H37            5.4321     4.5674    -2.2493 H       
  38 H38            4.1952    -2.0563    -0.4555 H       
  39 H39            2.4455    -2.3005    -0.2383 H       
  40 H40            2.1544    -2.4029    -2.6987 H       
  41 H41            3.9041    -2.1586    -2.9159 H       
  42 H42            2.2648    -4.2565    -0.3121 H       
  43 H43            1.3084    -4.4060    -1.8097 H       
  44 H44            5.1623    -5.9912    -2.8619 H       
  45 H45            4.0851    -6.6296    -4.1310 H       
  46 H46            2.5730    -4.7533    -3.9003 H       
  47 H47            4.2155    -4.0787    -4.0147 H       
  48 H48            2.1139    -9.1609    -0.3838 H       
  49 H49            2.8297   -10.7548    -1.7413 H       
  50 H50            4.1009   -12.5433    -2.8530 H       
  51 H51            6.0247   -11.9861    -4.2813 H       
  52 H52            6.6877    -9.6397    -4.6079 H       
  53 H53            5.4254    -7.8361    -3.5107 H       
@<TRIPOS>BOND
   1    1    2 1
   2    1    6 2
   3    1   32 1
   4    2    3 2
   5    2   33 1
   6    3    4 1
   7    3   34 1
   8    4    5 1
   9    4    7 2
  10    5    6 1
  11    5   10 am
  12    6   35 1
  13    7    8 1
  14    7   15 1
  15    8    9 2
  16    8   36 1
  17    9   10 1
  18    9   12 1
  19   10   11 2
  20   12   13 1
  21   12   14 2
  22   13   37 1
  23   15   16 1
  24   15   38 1
  25   15   39 1
  26   16   17 1
  27   16   40 1
  28   16   41 1
  29   17   18 1
  30   17   22 1
  31   18   19 1
  32   18   42 1
  33   18   43 1
  34   19   20 1
  35   19   23 2
  36   20   21 1
  37   20   25 1
  38   21   22 1
  39   21   44 1
  40   21   45 1
  41   22   46 1
  42   22   47 1
  43   23   24 1
  44   24   25 2
  45   24   48 1
  46   25   26 1
  47   26   27 ar
  48   26   31 ar
  49   27   28 ar
  50   27   49 1
  51   28   29 ar
  52   28   50 1
  53   29   30 ar
  54   29   51 1
  55   30   31 ar
  56   30   52 1
  57   31   53 1

#	End of record

