#	Name: ASD01001023
#	Creating user name:	WinNT
#	Creation time:	15. 06. 2019 18:54

#	Modifying user name:	WinNT
#	Modification time:	15. 06. 2019 18:54

#	Program:	/corina/corina34_cracker 3.40 0067  02.08.2006

@<TRIPOS>MOLECULE
ASD01001023
  53   55    0    0    0
SMALL
NO_CHARGES


@<TRIPOS>ATOM
   1 C1             1.1203     1.7049     0.7902 C.ar    
   2 C2             0.9826     0.3818     1.1660 C.ar    
   3 C3             1.6073     2.0199    -0.4646 C.ar    
   4 C4             1.3318    -0.6263     0.2870 C.ar    
   5 C5             1.9565     1.0118    -1.3436 C.ar    
   6 C6             1.8183    -0.3113    -0.9680 C.ar    
   7 C7             1.1825    -2.0688     0.6971 C.3     
   8 C8             2.5466    -2.6873     0.8640 C.ar    
   9 S9             0.2806    -2.1605     2.2683 S.3     
  10 C10            3.1152    -3.3981    -0.1763 C.ar    
  11 C11            3.2316    -2.5390     2.0555 C.ar    
  12 C12            4.3664    -3.9654    -0.0232 C.ar    
  13 C13            4.4828    -3.1063     2.2086 C.ar    
  14 C14            5.0492    -3.8216     1.1701 C.ar    
  15 C15           -1.3523    -1.4961     1.8409 C.3     
  16 C16           -2.2872    -1.6267     3.0450 C.3     
  17 N17           -1.7713    -0.8154     4.1557 N.3     
  18 C18           -1.7375     0.6085     3.7961 C.3     
  19 C19           -2.5598    -1.0316     5.3761 C.3     
  20 C20            0.4185    -2.8165    -0.3651 C.ar    
  21 C21            0.3491    -4.1965    -0.3243 C.ar    
  22 C22           -0.3517    -4.8824    -1.2987 C.ar    
  23 C23           -0.9835    -4.1882    -2.3135 C.ar    
  24 C24           -0.9148    -2.8082    -2.3538 C.ar    
  25 C25           -0.2177    -2.1220    -1.3770 C.ar    
  26 C26           -3.6637    -1.1435     2.6670 C.2     
  27 O27           -4.1552    -0.2050     3.2479 O.2     
  28 O28           -4.3437    -1.7557     1.6849 O.3     
  29 H29            0.8433     2.4925     1.4753 H       
  30 H30            0.6025     0.1357     2.1465 H       
  31 H31            1.7147     3.0537    -0.7583 H       
  32 H32            2.3364     1.2579    -2.3242 H       
  33 H33            2.0918    -1.0989    -1.6544 H       
  34 H34            2.5818    -3.5104    -1.1086 H       
  35 H35            2.7894    -1.9796     2.8666 H       
  36 H36            4.8104    -4.5214    -0.8357 H       
  37 H37            5.0182    -2.9902     3.1394 H       
  38 H38            6.0268    -4.2649     1.2898 H       
  39 H39           -1.2568    -0.4453     1.5673 H       
  40 H40           -1.7630    -2.0546     0.9998 H       
  41 H41           -2.3404    -2.6712     3.3521 H       
  42 H42           -2.7561     0.9768     3.6741 H       
  43 H43           -1.2400     1.1710     4.5862 H       
  44 H44           -1.1912     0.7344     2.8613 H       
  45 H45           -2.4494    -2.0660     5.7015 H       
  46 H46           -2.2048    -0.3639     6.1611 H       
  47 H47           -3.6103    -0.8254     5.1712 H       
  48 H48            0.8427    -4.7388     0.4685 H       
  49 H49           -0.4053    -5.9606    -1.2672 H       
  50 H50           -1.5304    -4.7241    -3.0752 H       
  51 H51           -1.4081    -2.2658    -3.1469 H       
  52 H52           -0.1640    -1.0438    -1.4084 H       
  53 H53           -5.2228    -1.4101     1.4781 H       
@<TRIPOS>BOND
   1    1    2 ar
   2    1    3 ar
   3    1   29 1
   4    2    4 ar
   5    2   30 1
   6    3    5 ar
   7    3   31 1
   8    4    6 ar
   9    4    7 1
  10    5    6 ar
  11    5   32 1
  12    6   33 1
  13    7    8 1
  14    7    9 1
  15    7   20 1
  16    8   10 ar
  17    8   11 ar
  18    9   15 1
  19   10   12 ar
  20   10   34 1
  21   11   13 ar
  22   11   35 1
  23   12   14 ar
  24   12   36 1
  25   13   14 ar
  26   13   37 1
  27   14   38 1
  28   15   16 1
  29   15   39 1
  30   15   40 1
  31   16   17 1
  32   16   26 1
  33   16   41 1
  34   17   18 1
  35   17   19 1
  36   18   42 1
  37   18   43 1
  38   18   44 1
  39   19   45 1
  40   19   46 1
  41   19   47 1
  42   20   21 ar
  43   20   25 ar
  44   21   22 ar
  45   21   48 1
  46   22   23 ar
  47   22   49 1
  48   23   24 ar
  49   23   50 1
  50   24   25 ar
  51   24   51 1
  52   25   52 1
  53   26   27 2
  54   26   28 1
  55   28   53 1

#	End of record

