#	Name: ASD09740065
#	Creating user name:	WinNT
#	Creation time:	15. 06. 2019 21:22

#	Modifying user name:	WinNT
#	Modification time:	15. 06. 2019 21:22

#	Program:	/corina/corina34_cracker 3.40 0067  02.08.2006

@<TRIPOS>MOLECULE
ASD09740065
  32   34    0    0    0
SMALL
NO_CHARGES


@<TRIPOS>ATOM
   1 N1            -0.0144     1.2085     0.0087 N.2     
   2 O2             0.0021    -0.0041     0.0020 O.3     
   3 C3             1.2055     1.6809    -0.0004 C.2     
   4 N4             2.0466     0.6268    -0.0141 N.2     
   5 C5             1.2711    -0.4437    -0.0125 C.2     
   6 C6             1.7134    -1.8480    -0.0238 C.2     
   7 C7             1.5930     3.1146     0.0036 C.ar    
   8 C8             3.0180    -2.2967    -0.0377 C.2     
   9 C9             0.6231     4.1199     0.0187 C.ar    
  10 C10            1.0267     5.4400     0.0219 C.ar    
  11 N11            2.3070     5.7564     0.0104 N.ar    
  12 C12            3.2536     4.8382    -0.0041 C.ar    
  13 C13            2.9373     3.4945    -0.0019 C.ar    
  14 N14            0.9097    -2.9524    -0.0166 N.pl3   
  15 N15            1.7372    -4.0821    -0.0323 N.2     
  16 C16            2.9862    -3.6896    -0.0448 C.2     
  17 C17            4.1908    -4.5950    -0.0637 C.3     
  18 C18           -0.5551    -2.9548     0.0044 C.3     
  19 C19           -1.0858    -2.9500    -1.4306 C.3     
  20 H20            3.9042    -1.6794    -0.0428 H       
  21 H21           -0.4270     3.8679     0.0275 H       
  22 H22            0.2842     6.2242     0.0336 H       
  23 H23            4.2901     5.1416    -0.0131 H       
  24 H24            3.7176     2.7478    -0.0135 H       
  25 H25            4.4689    -4.8081    -1.0959 H       
  26 H26            5.0220    -4.1044     0.4427 H       
  27 H27            3.9526    -5.5273     0.4483 H       
  28 H28           -0.9097    -3.8473     0.5199 H       
  29 H29           -0.9125    -2.0674     0.5268 H       
  30 H30           -0.7312    -2.0574    -1.9461 H       
  31 H31           -0.7284    -3.8374    -1.9531 H       
  32 H32           -2.1756    -2.9517    -1.4150 H       
@<TRIPOS>BOND
   1    1    2 1
   2    1    3 2
   3    2    5 1
   4    3    4 1
   5    3    7 1
   6    4    5 2
   7    5    6 1
   8    6    8 2
   9    6   14 1
  10    7    9 ar
  11    7   13 ar
  12    8   16 1
  13    8   20 1
  14    9   10 ar
  15    9   21 1
  16   10   11 ar
  17   10   22 1
  18   11   12 ar
  19   12   13 ar
  20   12   23 1
  21   13   24 1
  22   14   15 1
  23   14   18 1
  24   15   16 2
  25   16   17 1
  26   17   25 1
  27   17   26 1
  28   17   27 1
  29   18   19 1
  30   18   28 1
  31   18   29 1
  32   19   30 1
  33   19   31 1
  34   19   32 1

#	End of record

