#	Name: ASD05430547
#	Creating user name:	WinNT
#	Creation time:	15. 06. 2019 21:00

#	Modifying user name:	WinNT
#	Modification time:	15. 06. 2019 21:00

#	Program:	/corina/corina34_cracker 3.40 0067  02.08.2006

@<TRIPOS>MOLECULE
ASD05430547
  50   49    0    0    0
SMALL
NO_CHARGES


@<TRIPOS>ATOM
   1 C1            -0.0187     1.5291     0.0104 C.3     
   2 C2             0.0021    -0.0041     0.0020 C.3     
   3 C3             0.4934    -0.4715    -1.3665 C.3     
   4 C4             1.7793     0.2221    -1.7331 C.ar    
   5 C5             2.2043     1.3732    -1.1090 C.ar    
   6 C6             1.4241     2.0302    -0.0006 C.3     
   7 C7             2.5509    -0.3377    -2.7435 C.ar    
   8 C8             3.7368     0.2522    -3.1285 C.ar    
   9 C9             4.1618     1.4104    -2.5042 C.ar    
  10 C10            3.3980     1.9668    -1.4995 C.ar    
  11 H11           -0.5409     1.8940    -0.8740 H       
  12 H12           -0.5239     1.8845     0.9085 H       
  13 H13            0.6768    -0.3663     0.7777 H       
  14 H14           -1.0030    -0.3858     0.1813 H       
  15 H15            0.6608    -1.5483    -1.3398 H       
  16 H16           -0.2639    -0.2447    -2.1170 H       
  17 H17            1.4283     3.1100    -0.1492 H       
  18 H18            1.8927     1.7977     0.9556 H       
  19 H19            2.2193    -1.2421    -3.2319 H       
  20 H20            4.3314    -0.1892    -3.9146 H       
  21 H21            5.0886     1.8779    -2.8025 H       
  22 H22            3.7304     2.8718    -1.0128 H       
  23 C23           11.0904    11.2366     8.1059 C.3     
  24 C24           11.1112     9.7067     8.0975 C.3     
  25 C25           11.8273     9.2133     6.8387 C.3     
  26 C26           11.8512     9.1999     9.3370 C.3     
  27 H27           12.1130    11.6138     8.0981 H       
  28 H28           10.5633    11.5976     7.2228 H       
  29 H29           10.5802    11.5881     9.0027 H       
  30 H30           10.0886     9.3294     8.1052 H       
  31 H31           12.8499     9.5906     6.8309 H       
  32 H32           11.8421     8.1234     6.8327 H       
  33 H33           11.3001     9.5744     5.9556 H       
  34 H34           11.3410     9.5514    10.2338 H       
  35 H35           11.8660     8.1100     9.3310 H       
  36 H36           12.8738     9.5772     9.3293 H       
  37 C37           18.8756    19.7404    17.3841 C.3     
  38 C38           18.8964    18.2106    17.3757 C.3     
  39 C39           19.6125    17.7171    16.1169 C.3     
  40 C40           19.6364    17.7037    18.6152 C.3     
  41 H41           19.8982    20.1177    17.3763 H       
  42 H42           18.3484    20.1015    16.5010 H       
  43 H43           18.3654    20.0919    18.2809 H       
  44 H44           17.8738    17.8333    17.3834 H       
  45 H45           20.6351    18.0944    16.1091 H       
  46 H46           19.6273    16.6273    16.1109 H       
  47 H47           19.0853    18.0782    15.2338 H       
  48 H48           19.1262    18.0552    19.5120 H       
  49 H49           19.6511    16.6138    18.6092 H       
  50 H50           20.6590    18.0810    18.6074 H       
@<TRIPOS>BOND
   1    1    2 1
   2    1    6 1
   3    1   11 1
   4    1   12 1
   5    2    3 1
   6    2   13 1
   7    2   14 1
   8    3    4 1
   9    3   15 1
  10    3   16 1
  11    4    5 ar
  12    4    7 ar
  13    5    6 1
  14    5   10 ar
  15    6   17 1
  16    6   18 1
  17    7    8 ar
  18    7   19 1
  19    8    9 ar
  20    8   20 1
  21    9   10 ar
  22    9   21 1
  23   10   22 1
  24   23   24 1
  25   23   27 1
  26   23   28 1
  27   23   29 1
  28   24   25 1
  29   24   26 1
  30   24   30 1
  31   25   31 1
  32   25   32 1
  33   25   33 1
  34   26   34 1
  35   26   35 1
  36   26   36 1
  37   37   38 1
  38   37   41 1
  39   37   42 1
  40   37   43 1
  41   38   39 1
  42   38   40 1
  43   38   44 1
  44   39   45 1
  45   39   46 1
  46   39   47 1
  47   40   48 1
  48   40   49 1
  49   40   50 1

#	End of record

