#	Name: ASD01913731
#	Creating user name:	WinNT
#	Creation time:	15. 06. 2019 20:02

#	Modifying user name:	WinNT
#	Modification time:	15. 06. 2019 20:02

#	Program:	/corina/corina34_cracker 3.40 0067  02.08.2006

@<TRIPOS>MOLECULE
ASD01913731
  50   51    0    0    0
SMALL
NO_CHARGES


@<TRIPOS>ATOM
   1 O1            -0.0163     1.3508     0.0095 O.3     
   2 C2             0.0021    -0.0041     0.0020 C.ar    
   3 C3            -1.1990    -0.7061     0.0097 C.ar    
   4 C4            -1.1741    -2.0858     0.0021 C.ar    
   5 C5             0.0719    -2.7294    -0.0133 C.ar    
   6 C6             1.2332    -1.9554    -0.0202 C.ar    
   7 N7             1.1631    -0.6409    -0.0179 N.ar    
   8 C8             0.1537    -4.2032    -0.0215 C.2     
   9 N9             1.3564    -4.8113    -0.0363 N.am    
  10 O10           -0.8638    -4.8687    -0.0150 O.2     
  11 C11            1.4377    -6.2740    -0.0444 C.3     
  12 C12            1.2480     2.0168     0.0010 C.3     
  13 C13            1.0303     3.5080     0.0111 C.ar    
  14 C14            0.9419     4.1851     1.2128 C.ar    
  15 C15            0.7418     5.5532     1.2236 C.ar    
  16 C16            0.6298     6.2450     0.0328 C.ar    
  17 C17            0.7186     5.5677    -1.1718 C.ar    
  18 C18            0.9247     4.1988    -1.1815 C.ar    
  19 F19            0.6093     6.2431    -2.3368 F       
  20 C20            1.3544    -6.7974     1.3909 C.3     
  21 C21            2.7653    -6.7076    -0.6692 C.3     
  22 C22            3.9248    -6.1370     0.1499 C.3     
  23 C23            2.8501    -8.2352    -0.6777 C.3     
  24 C24            2.8486    -6.1842    -2.1044 C.3     
  25 C25           -2.4540    -2.8813     0.0105 C.3     
  26 F26           -3.5462    -2.0072     0.0260 F       
  27 F27           -2.5133    -3.6814    -1.1355 F       
  28 F28           -2.4907    -3.6937     1.1489 F       
  29 H29           -2.1406    -0.1771     0.0219 H       
  30 H30            2.1986    -2.4396    -0.0317 H       
  31 H31            2.1682    -4.2804    -0.0415 H       
  32 H32            0.6116    -6.6806    -0.6279 H       
  33 H33            1.8174     1.7268     0.8840 H       
  34 H34            1.8004     1.7363    -0.8958 H       
  35 H35            1.0289     3.6451     2.1441 H       
  36 H36            0.6725     6.0812     2.1632 H       
  37 H37            0.4728     7.3135     0.0415 H       
  38 H38            0.9941     3.6695    -2.1203 H       
  39 H39            0.4086    -6.4886     1.8360 H       
  40 H40            1.4148    -7.8858     1.3848 H       
  41 H41            2.1804    -6.3909     1.9744 H       
  42 H42            3.8655    -6.5099     1.1724 H       
  43 H43            4.8706    -6.4459    -0.2952 H       
  44 H44            3.8644    -5.0487     0.1559 H       
  45 H45            2.0240    -8.6418    -1.2612 H       
  46 H46            3.7959    -8.5441    -1.1227 H       
  47 H47            2.7908    -8.6081     0.3448 H       
  48 H48            2.7881    -5.0959    -2.0984 H       
  49 H49            3.7944    -6.4931    -2.5495 H       
  50 H50            2.0225    -6.5907    -2.6879 H       
@<TRIPOS>BOND
   1    1    2 1
   2    1   12 1
   3    2    3 ar
   4    2    7 ar
   5    3    4 ar
   6    3   29 1
   7    4    5 ar
   8    4   25 1
   9    5    6 ar
  10    5    8 1
  11    6    7 ar
  12    6   30 1
  13    8    9 am
  14    8   10 2
  15    9   11 1
  16    9   31 1
  17   11   20 1
  18   11   21 1
  19   11   32 1
  20   12   13 1
  21   12   33 1
  22   12   34 1
  23   13   14 ar
  24   13   18 ar
  25   14   15 ar
  26   14   35 1
  27   15   16 ar
  28   15   36 1
  29   16   17 ar
  30   16   37 1
  31   17   18 ar
  32   17   19 1
  33   18   38 1
  34   20   39 1
  35   20   40 1
  36   20   41 1
  37   21   22 1
  38   21   23 1
  39   21   24 1
  40   22   42 1
  41   22   43 1
  42   22   44 1
  43   23   45 1
  44   23   46 1
  45   23   47 1
  46   24   48 1
  47   24   49 1
  48   24   50 1
  49   25   26 1
  50   25   27 1
  51   25   28 1

#	End of record

