#	Name: ASD01915925
#	Creating user name:	WinNT
#	Creation time:	15. 06. 2019 20:06

#	Modifying user name:	WinNT
#	Modification time:	15. 06. 2019 20:06

#	Program:	/corina/corina34_cracker 3.40 0067  02.08.2006

@<TRIPOS>MOLECULE
ASD01915925
  40   43    0    0    0
SMALL
NO_CHARGES


@<TRIPOS>ATOM
   1 C1            -0.0018     1.4664     0.2367 C.2     
   2 C2             0.0697     0.1218    -0.0253 C.2     
   3 C3            -1.2016    -0.6644    -0.3017 C.3     
   4 C4            -2.3581    -0.0142     0.4549 C.3     
   5 N5            -2.4035     1.4321     0.2718 N.am    
   6 C6            -1.2798     2.1862     0.2821 C.2     
   7 O7            -1.3269     3.4015     0.3267 O.2     
   8 S8             1.6204     2.0717     0.4942 S.3     
   9 C9             2.2521     0.5015     0.2427 C.2     
  10 N10            1.2962    -0.3358    -0.0055 N.2     
  11 O11            4.2928     0.2888    -0.9979 O.3     
  12 C12            5.6158     0.0031    -1.1198 C.ar    
  13 C13            6.2414     0.1224    -2.3523 C.ar    
  14 C14            6.3437    -0.4028    -0.0110 C.ar    
  15 C15            7.6904    -0.6931    -0.1381 C.ar    
  16 C16            8.3105    -0.5778    -1.3713 C.ar    
  17 C17            7.5866    -0.1684    -2.4752 C.ar    
  18 C18            3.7149     0.1438     0.3010 C.3     
  19 C19           -3.6414     2.0562     0.0805 C.ar    
  20 F20            8.4008    -1.0885     0.9408 F       
  21 C21           -4.5698     2.0905     1.1127 C.ar    
  22 C22           -5.7906     2.7074     0.9219 C.ar    
  23 C23           -6.0894     3.2911    -0.2977 C.ar    
  24 C24           -5.1652     3.2581    -1.3283 C.ar    
  25 C25           -3.9409     2.6472    -1.1400 C.ar    
  26 F26           -7.2846     3.8933    -0.4826 F       
  27 H27           -1.4126    -0.6532    -1.3711 H       
  28 H28           -1.0760    -1.6928     0.0369 H       
  29 H29           -3.2958    -0.4437     0.1023 H       
  30 H30           -2.2506    -0.2317     1.5176 H       
  31 H31            5.6769     0.4422    -3.2157 H       
  32 H32            5.8598    -0.4918     0.9504 H       
  33 H33            9.3620    -0.8039    -1.4695 H       
  34 H34            8.0720    -0.0796    -3.4359 H       
  35 H35            4.2234     0.8067     1.0010 H       
  36 H36            3.8235    -0.8884     0.6338 H       
  37 H37           -4.3374     1.6348     2.0639 H       
  38 H38           -6.5129     2.7343     1.7244 H       
  39 H39           -5.4003     3.7136    -2.2789 H       
  40 H40           -3.2203     2.6217    -1.9440 H       
@<TRIPOS>BOND
   1    1    2 2
   2    1    8 1
   3    1    6 1
   4    2    3 1
   5    2   10 1
   6    3    4 1
   7    3   27 1
   8    3   28 1
   9    4    5 1
  10    4   29 1
  11    4   30 1
  12    5    6 am
  13    5   19 1
  14    6    7 2
  15    8    9 1
  16    9   10 2
  17    9   18 1
  18   11   12 1
  19   11   18 1
  20   12   13 ar
  21   12   14 ar
  22   13   17 ar
  23   13   31 1
  24   14   15 ar
  25   14   32 1
  26   15   16 ar
  27   15   20 1
  28   16   17 ar
  29   16   33 1
  30   17   34 1
  31   18   35 1
  32   18   36 1
  33   19   21 ar
  34   19   25 ar
  35   21   22 ar
  36   21   37 1
  37   22   23 ar
  38   22   38 1
  39   23   24 ar
  40   23   26 1
  41   24   25 ar
  42   24   39 1
  43   25   40 1

#	End of record

