#	Name: ASD01510024
#	Creating user name:	WinNT
#	Creation time:	15. 06. 2019 19:21

#	Modifying user name:	WinNT
#	Modification time:	15. 06. 2019 19:21

#	Program:	/corina/corina34_cracker 3.40 0067  02.08.2006

@<TRIPOS>MOLECULE
ASD01510024
  46   48    0    0    0
SMALL
NO_CHARGES


@<TRIPOS>ATOM
   1 C1            -0.0173     1.4248     0.0099 C.3     
   2 O2             0.0021    -0.0041     0.0020 O.3     
   3 C3            -1.1979    -0.6362     0.0101 C.ar    
   4 N4            -2.3277     0.0631     0.0246 N.ar    
   5 C5            -3.5033    -0.5462     0.0326 C.ar    
   6 N6            -3.6053    -1.8665     0.0265 N.ar    
   7 C7            -2.5204    -2.6336     0.0121 C.ar    
   8 C8            -1.2633    -2.0294    -0.0026 C.ar    
   9 S9             0.2058    -3.0021    -0.0227 S.3     
  10 C10            0.4392    -3.1679    -1.7613 C.ar    
  11 N11            1.4776    -3.8582    -2.2102 N.ar    
  12 C12            1.6852    -4.0047    -3.5166 C.ar    
  13 N13            2.7735    -4.7287    -3.9778 N.pl3   
  14 C14            0.7947    -3.4216    -4.4137 C.ar    
  15 C15           -0.2841    -2.7040    -3.9050 C.ar    
  16 N16           -0.4313    -2.6036    -2.5861 N.ar    
  17 N17           -1.1962    -2.1063    -4.7609 N.pl3   
  18 O18           -2.6338    -3.9851     0.0060 O.3     
  19 C19           -3.9568    -4.5252     0.0158 C.3     
  20 N20           -4.6591     0.2190     0.0482 N.3     
  21 C21           -5.8547    -0.6335     0.0550 C.3     
  22 C22           -7.1027     0.2370     0.2189 C.3     
  23 C23           -7.1747     1.2399    -0.9359 C.3     
  24 C24           -5.8964     2.0827    -0.9500 C.3     
  25 C25           -4.6834     1.1587    -1.0800 C.3     
  26 H26            1.0053     1.8021     0.0021 H       
  27 H27           -0.5445     1.7859    -0.8732 H       
  28 H28           -0.5275     1.7763     0.9067 H       
  29 H29            3.3899    -5.1327    -3.3471 H       
  30 H30            2.9188    -4.8315    -4.9314 H       
  31 H31            0.9378    -3.5232    -5.4793 H       
  32 H32           -1.0849    -2.1866    -5.7211 H       
  33 H33           -1.9457    -1.6078    -4.3995 H       
  34 H34           -4.4788    -4.1915     0.9126 H       
  35 H35           -4.4959    -4.1820    -0.8672 H       
  36 H36           -3.9049    -5.6139     0.0095 H       
  37 H37           -5.9152    -1.1817    -0.8851 H       
  38 H38           -5.7929    -1.3392     0.8834 H       
  39 H39           -7.9910    -0.3947     0.2082 H       
  40 H40           -7.0494     0.7750     1.1654 H       
  41 H41           -7.2672     0.7026    -1.8797 H       
  42 H42           -8.0385     1.8906    -0.7999 H       
  43 H43           -5.9228     2.7697    -1.7958 H       
  44 H44           -5.8241     2.6497    -0.0220 H       
  45 H45           -3.7708     1.7547    -1.0760 H       
  46 H46           -4.7494     0.6021    -2.0148 H       
@<TRIPOS>BOND
   1    1    2 1
   2    1   26 1
   3    1   27 1
   4    1   28 1
   5    2    3 1
   6    3    4 ar
   7    3    8 ar
   8    4    5 ar
   9    5    6 ar
  10    5   20 1
  11    6    7 ar
  12    7    8 ar
  13    7   18 1
  14    8    9 1
  15    9   10 1
  16   10   11 ar
  17   10   16 ar
  18   11   12 ar
  19   12   13 1
  20   12   14 ar
  21   13   29 1
  22   13   30 1
  23   14   15 ar
  24   14   31 1
  25   15   16 ar
  26   15   17 1
  27   17   32 1
  28   17   33 1
  29   18   19 1
  30   19   34 1
  31   19   35 1
  32   19   36 1
  33   20   21 1
  34   20   25 1
  35   21   22 1
  36   21   37 1
  37   21   38 1
  38   22   23 1
  39   22   39 1
  40   22   40 1
  41   23   24 1
  42   23   41 1
  43   23   42 1
  44   24   25 1
  45   24   43 1
  46   24   44 1
  47   25   45 1
  48   25   46 1

#	End of record

