#	Name: ASD05740214
#	Creating user name:	WinNT
#	Creation time:	15. 06. 2019 21:03

#	Modifying user name:	WinNT
#	Modification time:	15. 06. 2019 21:03

#	Program:	/corina/corina34_cracker 3.40 0067  02.08.2006

@<TRIPOS>MOLECULE
ASD05740214
  58   62    0    0    0
SMALL
NO_CHARGES


@<TRIPOS>ATOM
   1 C1             0.5013    -0.8400    -2.7418 C.3     
   2 N2            -0.1224    -0.2133    -1.5680 N.3     
   3 C3            -1.4246    -0.6891    -1.3780 C.ar    
   4 C4            -2.1879    -0.2188    -0.3174 C.ar    
   5 C5            -3.4727    -0.6883    -0.1300 C.ar    
   6 C6            -4.0016    -1.6311    -1.0017 C.ar    
   7 C7            -3.2382    -2.1017    -2.0621 C.ar    
   8 C8            -1.9557    -1.6273    -2.2534 C.ar    
   9 N9            -5.3049    -2.1077    -0.8113 N.pl3   
  10 C10           -6.2911    -1.2568    -0.3517 C.ar    
  11 N11           -5.9979     0.0275    -0.1796 N.ar    
  12 N12           -7.4951    -1.7514    -0.1043 N.ar    
  13 C13           -8.4663    -0.9632     0.3381 C.ar    
  14 C14           -8.1897     0.4072     0.5384 C.ar    
  15 C15           -6.9041     0.8835     0.2576 C.ar    
  16 N16           -9.7222    -1.4454     0.6027 N.am    
  17 C17          -10.6951    -0.6319     1.0503 C.2     
  18 C18          -10.4731     0.7431     1.2667 C.2     
  19 C19           -9.2504     1.2841     1.0248 C.2     
  20 C20          -10.0085    -2.8669     0.3943 C.3     
  21 O21          -11.7994    -1.0964     1.2746 O.2     
  22 C22           -9.9051    -3.5981     1.7080 C.ar    
  23 C23          -11.0472    -3.8738     2.4381 C.ar    
  24 C24            0.6958    -0.4234    -0.3654 C.3     
  25 C25            2.0850     0.1802    -0.5849 C.3     
  26 N26            2.7086    -0.4465    -1.7588 N.3     
  27 C27            1.8905    -0.2364    -2.9613 C.3     
  28 C28            4.0757     0.0529    -1.9582 C.3     
  29 C29          -10.9518    -4.5448     3.6438 C.ar    
  30 C30           -9.7153    -4.9395     4.1196 C.ar    
  31 C31           -8.5738    -4.6643     3.3908 C.ar    
  32 C32           -8.6687    -3.9985     2.1814 C.ar    
  33 Br33         -12.7386    -3.3330     1.7881 Br      
  34 Cl34          -7.2350    -3.6532     1.2655 Cl      
  35 H35            0.5933    -1.9133    -2.5752 H       
  36 H36           -0.1166    -0.6599    -3.6215 H       
  37 H37           -1.7764     0.5138     0.3610 H       
  38 H38           -4.0663    -0.3226     0.6948 H       
  39 H39           -3.6493    -2.8354    -2.7396 H       
  40 H40           -1.3621    -1.9933    -3.0781 H       
  41 H41           -5.5149    -3.0352    -1.0022 H       
  42 H42           -6.6573     1.9253     0.3994 H       
  43 H43          -11.2770     1.3683     1.6263 H       
  44 H44           -9.0683     2.3362     1.1873 H       
  45 H45          -11.0161    -2.9798    -0.0060 H       
  46 H46           -9.2888    -3.2830    -0.3107 H       
  47 H47            0.2197     0.0604     0.4874 H       
  48 H48            0.7900    -1.4920    -0.1718 H       
  49 H49            1.9930     1.2534    -0.7515 H       
  50 H50            2.7029     0.0000     0.2948 H       
  51 H51            2.3666    -0.7202    -3.8142 H       
  52 H52            1.7963     0.8321    -3.1549 H       
  53 H53            4.6778    -0.1755    -1.0788 H       
  54 H54            4.5138    -0.4271    -2.8333 H       
  55 H55            4.0497     1.1319    -2.1105 H       
  56 H56          -11.8435    -4.7601     4.2138 H       
  57 H57           -9.6413    -5.4628     5.0615 H       
  58 H58           -7.6081    -4.9729     3.7629 H       
@<TRIPOS>BOND
   1    1    2 1
   2    1   27 1
   3    1   35 1
   4    1   36 1
   5    2    3 1
   6    2   24 1
   7    3    4 ar
   8    3    8 ar
   9    4    5 ar
  10    4   37 1
  11    5    6 ar
  12    5   38 1
  13    6    7 ar
  14    6    9 1
  15    7    8 ar
  16    7   39 1
  17    8   40 1
  18    9   10 1
  19    9   41 1
  20   10   11 ar
  21   10   12 ar
  22   11   15 ar
  23   12   13 ar
  24   13   14 ar
  25   13   16 1
  26   14   15 ar
  27   14   19 1
  28   15   42 1
  29   16   17 am
  30   16   20 1
  31   17   18 1
  32   17   21 2
  33   18   19 2
  34   18   43 1
  35   19   44 1
  36   20   22 1
  37   20   45 1
  38   20   46 1
  39   22   23 ar
  40   22   32 ar
  41   23   29 ar
  42   23   33 1
  43   24   25 1
  44   24   47 1
  45   24   48 1
  46   25   26 1
  47   25   49 1
  48   25   50 1
  49   26   27 1
  50   26   28 1
  51   27   51 1
  52   27   52 1
  53   28   53 1
  54   28   54 1
  55   28   55 1
  56   29   30 ar
  57   29   56 1
  58   30   31 ar
  59   30   57 1
  60   31   32 ar
  61   31   58 1
  62   32   34 1

#	End of record

