#	Name: ASD03331699
#	Creating user name:	WinNT
#	Creation time:	15. 06. 2019 20:39

#	Modifying user name:	WinNT
#	Modification time:	15. 06. 2019 20:39

#	Program:	/corina/corina34_cracker 3.40 0067  02.08.2006

@<TRIPOS>MOLECULE
ASD03331699
  59   61    0    0    0
SMALL
NO_CHARGES


@<TRIPOS>ATOM
   1 C1             0.2773     1.5166     0.1455 C.3     
   2 N2             0.2003     0.0490     0.0879 N.am    
   3 C3             0.7263    -0.6256    -1.1143 C.3     
   4 C4             2.0315     0.0479    -1.4607 C.2     
   5 N5             2.4674     1.2000    -0.8919 N.pl3   
   6 C6             1.7484     1.9470     0.1429 C.3     
   7 C7             2.9713    -0.3438    -2.3583 C.2     
   8 N8             3.9661     0.5719    -2.3351 N.2     
   9 C9             3.6691     1.5031    -1.4580 C.2     
  10 C10            4.5005     2.6845    -1.1382 C.ar    
  11 C11            2.9177    -1.5491    -3.2043 C.2     
  12 O12            1.9639    -2.3003    -3.1328 O.2     
  13 C13            5.5433     3.0575    -1.9867 C.ar    
  14 N14            3.9257    -1.8191    -4.0573 N.am    
  15 C15           -0.3343    -0.6585     1.1029 C.2     
  16 C16            6.3147     4.1605    -1.6832 C.ar    
  17 C17            6.0562     4.8957    -0.5401 C.ar    
  18 C18            5.0240     4.5306     0.3055 C.ar    
  19 C19            4.2414     3.4334     0.0099 C.ar    
  20 C20           -0.8645     0.0537     2.3205 C.3     
  21 O21           -0.3886    -1.8682     1.0362 O.2     
  22 C22            3.8724    -3.0174    -4.8984 C.3     
  23 C23            3.0744    -2.7142    -6.1682 C.3     
  24 C24            5.2724    -3.4317    -5.2718 C.2     
  25 N25            5.5434    -4.7242    -5.5413 N.am    
  26 C26            1.6206    -2.4143    -5.7975 C.3     
  27 C27            3.6816    -1.5003    -6.8743 C.3     
  28 C28            3.1232    -3.9249    -7.1024 C.3     
  29 O29            6.1551    -2.6021    -5.3299 O.2     
  30 C30            6.9227    -5.1448    -5.8003 C.3     
  31 H31           -0.2278     1.9418    -0.7218 H       
  32 H32           -0.2038     1.8707     1.0573 H       
  33 H33            0.8967    -1.6814    -0.9039 H       
  34 H34            0.0219    -0.5185    -1.9392 H       
  35 H35            1.8150     3.0147    -0.0662 H       
  36 H36            2.1907     1.7376     1.1168 H       
  37 H37            5.7465     2.4839    -2.8790 H       
  38 H38            4.6864    -1.2200    -4.1143 H       
  39 H39            7.1222     4.4503    -2.3392 H       
  40 H40            6.6631     5.7580    -0.3068 H       
  41 H41            4.8276     5.1082     1.1967 H       
  42 H42            3.4358     3.1494     0.6708 H       
  43 H43           -1.9179     0.2913     2.1726 H       
  44 H44           -0.7563    -0.5898     3.1936 H       
  45 H45           -0.3027     0.9747     2.4762 H       
  46 H46            3.3886    -3.8254    -4.3495 H       
  47 H47            4.8253    -5.3759    -5.5637 H       
  48 H48            1.5859    -1.5518    -5.1319 H       
  49 H49            1.0522    -2.1983    -6.7020 H       
  50 H50            1.1881    -3.2791    -5.2944 H       
  51 H51            4.7173    -1.7140    -7.1384 H       
  52 H52            3.1131    -1.2843    -7.7789 H       
  53 H53            3.6468    -0.6378    -6.2087 H       
  54 H54            2.7866    -4.8118    -6.5657 H       
  55 H55            2.4720    -3.7494    -7.9587 H       
  56 H56            4.1457    -4.0758    -7.4484 H       
  57 H57            6.9448    -6.2167    -5.9968 H       
  58 H58            7.3094    -4.6084    -6.6668 H       
  59 H59            7.5399    -4.9221    -4.9299 H       
@<TRIPOS>BOND
   1    1    2 1
   2    1    6 1
   3    1   31 1
   4    1   32 1
   5    2    3 1
   6    2   15 am
   7    3    4 1
   8    3   33 1
   9    3   34 1
  10    4    5 1
  11    4    7 2
  12    5    6 1
  13    5    9 1
  14    6   35 1
  15    6   36 1
  16    7    8 1
  17    7   11 1
  18    8    9 2
  19    9   10 1
  20   10   13 ar
  21   10   19 ar
  22   11   12 2
  23   11   14 am
  24   13   16 ar
  25   13   37 1
  26   14   22 1
  27   14   38 1
  28   15   20 1
  29   15   21 2
  30   16   17 ar
  31   16   39 1
  32   17   18 ar
  33   17   40 1
  34   18   19 ar
  35   18   41 1
  36   19   42 1
  37   20   43 1
  38   20   44 1
  39   20   45 1
  40   22   23 1
  41   22   24 1
  42   22   46 1
  43   23   27 1
  44   23   28 1
  45   23   26 1
  46   24   25 am
  47   24   29 2
  48   25   30 1
  49   25   47 1
  50   26   48 1
  51   26   49 1
  52   26   50 1
  53   27   51 1
  54   27   52 1
  55   27   53 1
  56   28   54 1
  57   28   55 1
  58   28   56 1
  59   30   57 1
  60   30   58 1
  61   30   59 1

#	End of record

