#	Name: ASD01720124
#	Creating user name:	WinNT
#	Creation time:	15. 06. 2019 19:23

#	Modifying user name:	WinNT
#	Modification time:	15. 06. 2019 19:23

#	Program:	/corina/corina34_cracker 3.40 0067  02.08.2006

@<TRIPOS>MOLECULE
ASD01720124
  73   79    0    0    0
SMALL
NO_CHARGES


@<TRIPOS>ATOM
   1 C1            -0.0165     1.3645     0.0095 C.ar    
   2 C2             0.0021    -0.0041     0.0020 C.ar    
   3 C3             1.2239    -0.6746    -0.0132 C.ar    
   4 N4             2.3695    -0.0074    -0.0202 N.ar    
   5 C5             2.4006     1.3140    -0.0134 C.ar    
   6 C6             1.2064     2.0517     0.0016 C.ar    
   7 N7             1.2414    -2.0588    -0.0209 N.3     
   8 O8             3.5909     1.9597    -0.0203 O.3     
   9 C9             4.7682     1.1498    -0.0350 C.3     
  10 C10            1.2369     3.5235     0.0092 C.2     
  11 O11            2.3026     4.1098     0.0021 O.2     
  12 N12            0.0839     4.2214     0.0239 N.am    
  13 C13            2.6350    -2.5735    -0.0369 C.3     
  14 C14            2.5114    -4.0141    -0.5779 C.3     
  15 C15            1.1996    -4.0263    -1.3896 C.3     
  16 C16            0.6410    -2.5920    -1.2707 C.3     
  17 C17            2.5441    -4.2207    -2.0936 C.3     
  18 C18            2.8699    -5.6024    -2.5993 C.2     
  19 O19            3.0927    -6.4953    -1.8164 O.2     
  20 O20            2.9124    -5.8411    -3.9195 O.3     
  21 C21            0.1143     5.6860     0.0315 C.3     
  22 C22           -1.1880     6.2262    -0.5628 C.3     
  23 C23           -1.1563     7.7558    -0.5549 C.3     
  24 C24            0.2643     6.1856     1.4698 C.3     
  25 C25            0.2959     7.7152     1.4778 C.3     
  26 C26           -1.0063     8.2554     0.8834 C.3     
  27 C27           -0.9197     5.6957     2.3060 C.3     
  28 C28           -2.3720     5.7363     0.2733 C.3     
  29 C29           -2.1903     7.7655     1.7195 C.3     
  30 C30           -2.2220     6.2358     1.7116 C.3     
  31 O31           -0.9767     9.6841     0.8908 O.3     
  32 C32           -2.1528    10.2926     0.3536 C.3     
  33 C33            5.9873     2.0357    -0.0410 C.ar    
  34 C34            6.5326     2.4531    -1.2407 C.ar    
  35 C35            6.5570     2.4356     1.1534 C.ar    
  36 C36            7.6752     3.2482     1.1479 C.ar    
  37 C37            8.2242     3.6605    -0.0519 C.ar    
  38 C38            7.6508     3.2657    -1.2462 C.ar    
  39 H39           -0.9523     1.9036     0.0169 H       
  40 H40           -0.9235    -0.5605     0.0082 H       
  41 H41            4.7841     0.5158     0.8515 H       
  42 H42            4.7685     0.5254    -0.9284 H       
  43 H43           -0.7659     3.7538     0.0295 H       
  44 H44            3.2553    -1.9704    -0.6999 H       
  45 H45            3.0494    -2.5803     0.9712 H       
  46 H46            2.7789    -4.8303     0.0931 H       
  47 H47            0.4907    -4.8516    -1.3228 H       
  48 H48           -0.4459    -2.6127    -1.1916 H       
  49 H49            0.9493    -1.9918    -2.1267 H       
  50 H50            2.9147    -3.3979    -2.7048 H       
  51 H51            3.1257    -6.7429    -4.1959 H       
  52 H52            0.9578     6.0350    -0.5642 H       
  53 H53           -1.2948     5.8703    -1.5875 H       
  54 H54           -0.3128     8.1049    -1.1506 H       
  55 H55           -2.0841     8.1407    -0.9783 H       
  56 H56            1.1920     5.8008     1.8933 H       
  57 H57            0.4028     8.0711     2.5025 H       
  58 H58            1.1394     8.0643     0.8821 H       
  59 H59           -0.9423     4.6059     2.3003 H       
  60 H60           -0.8129     6.0516     3.3307 H       
  61 H61           -3.2997     6.1211    -0.1501 H       
  62 H62           -2.3945     4.6465     0.2676 H       
  63 H63           -2.0835     8.1214     2.7442 H       
  64 H64           -3.1181     8.1503     1.2961 H       
  65 H65           -3.0655     5.8868     2.3073 H       
  66 H66           -2.0520    11.3771     0.3948 H       
  67 H67           -2.2834     9.9789    -0.6821 H       
  68 H68           -3.0201     9.9858     0.9382 H       
  69 H69            6.0851     2.1440    -2.1738 H       
  70 H70            6.1281     2.1135     2.0908 H       
  71 H71            8.1199     3.5612     2.0810 H       
  72 H72            9.0976     4.2957    -0.0562 H       
  73 H73            8.0770     3.5915    -2.1836 H       
@<TRIPOS>BOND
   1    1    2 ar
   2    1    6 ar
   3    1   39 1
   4    2    3 ar
   5    2   40 1
   6    3    4 ar
   7    3    7 1
   8    4    5 ar
   9    5    6 ar
  10    5    8 1
  11    6   10 1
  12    7   13 1
  13    7   16 1
  14    8    9 1
  15    9   33 1
  16    9   41 1
  17    9   42 1
  18   10   11 2
  19   10   12 am
  20   12   21 1
  21   12   43 1
  22   13   14 1
  23   13   44 1
  24   13   45 1
  25   14   15 1
  26   14   17 1
  27   14   46 1
  28   15   16 1
  29   15   17 1
  30   15   47 1
  31   16   48 1
  32   16   49 1
  33   17   18 1
  34   17   50 1
  35   18   19 2
  36   18   20 1
  37   20   51 1
  38   21   22 1
  39   21   24 1
  40   21   52 1
  41   22   23 1
  42   22   28 1
  43   22   53 1
  44   23   26 1
  45   23   54 1
  46   23   55 1
  47   24   25 1
  48   24   27 1
  49   24   56 1
  50   25   26 1
  51   25   57 1
  52   25   58 1
  53   26   29 1
  54   26   31 1
  55   27   30 1
  56   27   59 1
  57   27   60 1
  58   28   30 1
  59   28   61 1
  60   28   62 1
  61   29   30 1
  62   29   63 1
  63   29   64 1
  64   30   65 1
  65   31   32 1
  66   32   66 1
  67   32   67 1
  68   32   68 1
  69   33   35 ar
  70   33   34 ar
  71   34   38 ar
  72   34   69 1
  73   35   36 ar
  74   35   70 1
  75   36   37 ar
  76   36   71 1
  77   37   38 ar
  78   37   72 1
  79   38   73 1

#	End of record

