#	Name: ASD03330604
#	Creating user name:	WinNT
#	Creation time:	15. 06. 2019 20:37

#	Modifying user name:	WinNT
#	Modification time:	15. 06. 2019 20:37

#	Program:	/corina/corina34_cracker 3.40 0067  02.08.2006

@<TRIPOS>MOLECULE
ASD03330604
  64   66    0    0    0
SMALL
NO_CHARGES


@<TRIPOS>ATOM
   1 C1            -0.3250     1.1698     0.8451 C.2     
   2 N2            -0.3549    -0.1692     1.0788 N.pl3   
   3 C3             0.9804     1.5553     0.8923 C.2     
   4 N4             1.7265     0.4553     1.1345 N.2     
   5 C5             0.9340    -0.5852     1.2421 C.2     
   6 C6             1.3661    -1.9766     1.4983 C.ar    
   7 C7             1.4881     2.9267     0.7111 C.2     
   8 O8             0.7128     3.8388     0.4966 O.2     
   9 C9             3.3166     4.5336     0.6029 C.3     
  10 N10            2.8118     3.1702     0.7830 N.am    
  11 C11            3.4940     4.8187    -0.8898 C.3     
  12 C12            2.1275     4.8043    -1.5778 C.3     
  13 C13            4.1429     6.1921    -1.0731 C.3     
  14 C14            4.3892     3.7447    -1.5112 C.3     
  15 C15            4.6439     4.6744     1.3025 C.2     
  16 N16            5.1810     5.8963     1.4892 N.am    
  17 O17            5.2288     3.6881     1.6974 O.2     
  18 C18            6.5040     6.0287     2.1043 C.3     
  19 C19           -1.5653    -0.9921     1.1519 C.3     
  20 C20           -2.4707    -0.6608    -0.0385 C.3     
  21 C21           -3.3821     0.5095     0.3168 C.3     
  22 N22           -2.7059     1.4515     1.2109 N.3     
  23 C23           -1.5221     2.0419     0.5686 C.3     
  24 C24           -3.6304     2.4957     1.6721 C.3     
  25 C25            0.9263    -4.1563     2.4098 C.ar    
  26 C26            2.1703    -4.5861     1.9814 C.ar    
  27 C27            3.0208    -3.7112     1.3142 C.ar    
  28 C28            2.6223    -2.4088     1.0718 C.ar    
  29 C29            0.5210    -2.8586     2.1720 C.ar    
  30 F30            2.5616    -5.8576     2.2171 F       
  31 O31            4.2420    -4.1375     0.8952 O.3     
  32 C32            5.0637    -3.1856     0.2165 C.3     
  33 H33            2.6057     5.2432     1.0263 H       
  34 H34            3.4301     2.4427     0.9541 H       
  35 H35            1.4898     5.5694    -1.1351 H       
  36 H36            2.2540     5.0074    -2.6412 H       
  37 H37            1.6653     3.8258    -1.4472 H       
  38 H38            5.1017     6.2130    -0.5552 H       
  39 H39            4.2994     6.3812    -2.1351 H       
  40 H40            3.4898     6.9606    -0.6596 H       
  41 H41            3.9270     2.7663    -1.3806 H       
  42 H42            4.5157     3.9478    -2.5746 H       
  43 H43            5.3628     3.7550    -1.0211 H       
  44 H44            4.6915     6.6881     1.2164 H       
  45 H45            6.7692     7.0838     2.1721 H       
  46 H46            6.4853     5.5938     3.1036 H       
  47 H47            7.2419     5.5071     1.4947 H       
  48 H48           -1.2914    -2.0466     1.1189 H       
  49 H49           -2.0938    -0.7809     2.0815 H       
  50 H50           -1.8561    -0.3936    -0.8981 H       
  51 H51           -3.0783    -1.5315    -0.2851 H       
  52 H52           -3.6708     1.0284    -0.5973 H       
  53 H53           -4.2772     0.1291     0.8090 H       
  54 H54           -1.3476     3.0391     0.9725 H       
  55 H55           -1.6853     2.1065    -0.5072 H       
  56 H56           -4.4586     2.0356     2.2110 H       
  57 H57           -3.1024     3.1818     2.3344 H       
  58 H58           -4.0162     3.0447     0.8131 H       
  59 H59            0.2691    -4.8395     2.9272 H       
  60 H60            3.2817    -1.7284     0.5535 H       
  61 H61           -0.4501    -2.5260     2.5077 H       
  62 H62            4.5514    -2.8374    -0.6804 H       
  63 H63            5.2590    -2.3392     0.8750 H       
  64 H64            6.0074    -3.6540    -0.0629 H       
@<TRIPOS>BOND
   1    1    2 1
   2    1    3 2
   3    1   23 1
   4    2   19 1
   5    2    5 1
   6    3    4 1
   7    3    7 1
   8    4    5 2
   9    5    6 1
  10    6   29 ar
  11    6   28 ar
  12    7    8 2
  13    7   10 am
  14    9   10 1
  15    9   11 1
  16    9   15 1
  17    9   33 1
  18   10   34 1
  19   11   12 1
  20   11   13 1
  21   11   14 1
  22   12   35 1
  23   12   36 1
  24   12   37 1
  25   13   38 1
  26   13   39 1
  27   13   40 1
  28   14   41 1
  29   14   42 1
  30   14   43 1
  31   15   16 am
  32   15   17 2
  33   16   18 1
  34   16   44 1
  35   18   45 1
  36   18   46 1
  37   18   47 1
  38   19   20 1
  39   19   48 1
  40   19   49 1
  41   20   21 1
  42   20   50 1
  43   20   51 1
  44   21   22 1
  45   21   52 1
  46   21   53 1
  47   22   23 1
  48   22   24 1
  49   23   54 1
  50   23   55 1
  51   24   56 1
  52   24   57 1
  53   24   58 1
  54   25   26 ar
  55   25   29 ar
  56   25   59 1
  57   26   27 ar
  58   26   30 1
  59   27   28 ar
  60   27   31 1
  61   28   60 1
  62   29   61 1
  63   31   32 1
  64   32   62 1
  65   32   63 1
  66   32   64 1

#	End of record

