#	Name: ASD03540604
#	Creating user name:	WinNT
#	Creation time:	15. 06. 2019 20:43

#	Modifying user name:	WinNT
#	Modification time:	15. 06. 2019 20:43

#	Program:	/corina/corina34_cracker 3.40 0067  02.08.2006

@<TRIPOS>MOLECULE
ASD03540604
  52   55    0    0    0
SMALL
NO_CHARGES


@<TRIPOS>ATOM
   1 S1            -0.0207     1.6762     0.0113 S.o2    
   2 N2             0.0021    -0.0041     0.0020 N.am    
   3 C3             1.2387    -0.5546    -0.0127 C.2     
   4 N4             2.3901     0.0976    -0.0198 N.am    
   5 C5             2.6568     1.4537    -0.0150 C.ar    
   6 C6             1.6079     2.3816    -0.0005 C.ar    
   7 C7             3.9650     1.9318    -0.0239 C.ar    
   8 C8             4.2047     3.2871    -0.0184 C.ar    
   9 C9             3.1467     4.1998    -0.0038 C.ar    
  10 C10            1.8265     3.7244     0.0046 C.ar    
  11 C11            3.4155     5.6510     0.0025 C.2     
  12 O12            2.4909     6.4404     0.0153 O.2     
  13 N13            4.6858     6.1011    -0.0059 N.am    
  14 C14            4.9526     7.5416     0.0004 C.3     
  15 C15            6.4411     7.7768    -0.0112 C.ar    
  16 C16            7.1129     7.8918    -1.2140 C.ar    
  17 C17            8.4778     8.1080    -1.2258 C.ar    
  18 C18            9.1724     8.2095    -0.0324 C.ar    
  19 C19            8.4986     8.0942     1.1716 C.ar    
  20 C20            7.1328     7.8832     1.1810 C.ar    
  21 F21           10.5068     8.4204    -0.0428 F       
  22 O22            1.2974    -1.7690    -0.0198 O.2     
  23 O23           -0.6091     2.0558    -1.2252 O.2     
  24 O24           -0.5853     2.0425     1.2628 O.2     
  25 C25            3.5783    -0.7592    -0.0348 C.3     
  26 C26           -1.2211    -0.8103     0.0098 C.3     
  27 C27           -1.5864    -1.1826    -1.4040 C.ar    
  28 C28           -1.0966    -2.3496    -1.9600 C.ar    
  29 C29           -1.4317    -2.6910    -3.2570 C.ar    
  30 C30           -2.2568    -1.8657    -3.9978 C.ar    
  31 C31           -2.7473    -0.6992    -3.4415 C.ar    
  32 C32           -2.4158    -0.3599    -2.1430 C.ar    
  33 H33            4.7926     1.2379    -0.0349 H       
  34 H34            5.2222     3.6493    -0.0251 H       
  35 H35            0.9959     4.4146     0.0163 H       
  36 H36            5.4235     5.4712    -0.0160 H       
  37 H37            4.5058     7.9976    -0.8831 H       
  38 H38            4.5213     7.9871     0.8968 H       
  39 H39            6.5708     7.8122    -2.1447 H       
  40 H40            9.0024     8.1974    -2.1656 H       
  41 H41            9.0394     8.1732     2.1031 H       
  42 H42            6.6063     7.7974     2.1201 H       
  43 H43            3.2719    -1.8053    -0.0373 H       
  44 H44            4.1655    -0.5505    -0.9291 H       
  45 H45            4.1815    -0.5594     0.8508 H       
  46 H46           -1.0553    -1.7163     0.5928 H       
  47 H47           -2.0326    -0.2350     0.4553 H       
  48 H48           -0.4519    -2.9944    -1.3813 H       
  49 H49           -1.0484    -3.6024    -3.6916 H       
  50 H50           -2.5180    -2.1321    -5.0113 H       
  51 H51           -3.3918    -0.0542    -4.0204 H       
  52 H52           -2.8020     0.5496    -1.7072 H       
@<TRIPOS>BOND
   1    1    2 am
   2    1    6 1
   3    1   23 2
   4    1   24 2
   5    2    3 am
   6    2   26 1
   7    3    4 am
   8    3   22 2
   9    4    5 1
  10    4   25 1
  11    5    6 ar
  12    5    7 ar
  13    6   10 ar
  14    7    8 ar
  15    7   33 1
  16    8    9 ar
  17    8   34 1
  18    9   10 ar
  19    9   11 1
  20   10   35 1
  21   11   12 2
  22   11   13 am
  23   13   14 1
  24   13   36 1
  25   14   15 1
  26   14   37 1
  27   14   38 1
  28   15   16 ar
  29   15   20 ar
  30   16   17 ar
  31   16   39 1
  32   17   18 ar
  33   17   40 1
  34   18   19 ar
  35   18   21 1
  36   19   20 ar
  37   19   41 1
  38   20   42 1
  39   25   43 1
  40   25   44 1
  41   25   45 1
  42   26   27 1
  43   26   46 1
  44   26   47 1
  45   27   28 ar
  46   27   32 ar
  47   28   29 ar
  48   28   48 1
  49   29   30 ar
  50   29   49 1
  51   30   31 ar
  52   30   50 1
  53   31   32 ar
  54   31   51 1
  55   32   52 1

#	End of record

