#	Name: ASD00170770
#	Creating user name:	WinNT
#	Creation time:	15. 06. 2019 18:32

#	Modifying user name:	WinNT
#	Modification time:	15. 06. 2019 18:32

#	Program:	/corina/corina34_cracker 3.40 0067  02.08.2006

@<TRIPOS>MOLECULE
ASD00170770
  57   61    0    0    0
SMALL
NO_CHARGES


@<TRIPOS>ATOM
   1 Cl1            5.1081     6.1515    -0.6520 Cl      
   2 C2             3.5092     6.0236     0.0120 C.ar    
   3 C3             3.3103     5.3517     1.2070 C.ar    
   4 C4             2.0427     5.2472     1.7396 C.ar    
   5 C5             0.9585     5.8203     1.0719 C.ar    
   6 C6             1.1654     6.4963    -0.1322 C.ar    
   7 C7             2.4384     6.5987    -0.6522 C.ar    
   8 C8            -0.4030     5.7114     1.6374 C.2     
   9 O9            -0.5962     5.0400     2.6344 O.2     
  10 C10           -1.5204     6.4118     0.9978 C.2     
  11 C11           -2.3652     5.8120     0.0930 C.2     
  12 S12           -3.5456     6.9199    -0.4447 S.3     
  13 C13           -2.8900     8.2010     0.5621 C.2     
  14 C14           -1.8312     7.7503     1.2545 C.2     
  15 C15           -1.0458     8.6098     2.2114 C.3     
  16 C16           -1.7127     8.5806     3.5881 C.3     
  17 C17           -1.8735     7.1297     4.0463 C.3     
  18 C18           -0.8427     9.3391     4.5925 C.3     
  19 C19           -3.0888     9.2438     3.5024 C.3     
  20 C20           -3.4270     9.5697     0.6399 C.2     
  21 C21           -4.7266     9.8886     0.8220 C.2     
  22 C22           -4.9865    11.2431     0.8610 C.2     
  23 C23           -3.9170    12.0297     0.7133 C.2     
  24 S24           -2.4744    11.0433     0.5176 S.3     
  25 N25           -2.2701     4.4926    -0.3241 N.am    
  26 C26           -2.8168     3.4482     0.3241 C.2     
  27 O27           -3.4616     3.5102     1.3513 O.2     
  28 C28           -2.5019     2.2128    -0.4234 C.ar    
  29 C29           -1.7411     2.6201    -1.5384 C.ar    
  30 C30           -1.6240     4.0895    -1.4330 C.2     
  31 O31           -1.0373     4.8117    -2.2135 O.2     
  32 C32           -1.2868     1.6754    -2.4448 C.ar    
  33 C33           -1.5842     0.3359    -2.2482 C.ar    
  34 C34           -2.3301    -0.0634    -1.1550 C.ar    
  35 C35           -2.7918     0.8702    -0.2403 C.ar    
  36 H36            4.1496     4.9086     1.7223 H       
  37 H37            1.8888     4.7228     2.6711 H       
  38 H38            0.3306     6.9416    -0.6531 H       
  39 H39            2.5997     7.1217    -1.5833 H       
  40 H40           -0.0284     8.2271     2.2924 H       
  41 H41           -1.0201     9.6349     1.8418 H       
  42 H42           -0.8932     6.6572     4.1074 H       
  43 H43           -2.3486     7.1089     5.0271 H       
  44 H44           -2.4933     6.5893     3.3308 H       
  45 H45           -0.7282    10.3728     4.2661 H       
  46 H46           -1.3178     9.3183     5.5732 H       
  47 H47            0.1377     8.8666     4.6535 H       
  48 H48           -3.6936     8.7306     2.7548 H       
  49 H49           -3.5822     9.1837     4.4725 H       
  50 H50           -2.9711    10.2897     3.2188 H       
  51 H51           -5.5007     9.1430     0.9282 H       
  52 H52           -5.9819    11.6385     1.0004 H       
  53 H53           -3.9349    13.1095     0.7180 H       
  54 H54           -0.7040     1.9816    -3.3009 H       
  55 H55           -1.2309    -0.4010    -2.9543 H       
  56 H56           -2.5554    -1.1100    -1.0130 H       
  57 H57           -3.3737     0.5524     0.6122 H       
@<TRIPOS>BOND
   1    1    2 1
   2    2    3 ar
   3    2    7 ar
   4    3    4 ar
   5    3   36 1
   6    4    5 ar
   7    4   37 1
   8    5    6 ar
   9    5    8 1
  10    6    7 ar
  11    6   38 1
  12    7   39 1
  13    8    9 2
  14    8   10 1
  15   10   11 2
  16   10   14 1
  17   11   12 1
  18   11   25 1
  19   12   13 1
  20   13   14 2
  21   13   20 1
  22   14   15 1
  23   15   16 1
  24   15   40 1
  25   15   41 1
  26   16   17 1
  27   16   18 1
  28   16   19 1
  29   17   42 1
  30   17   43 1
  31   17   44 1
  32   18   45 1
  33   18   46 1
  34   18   47 1
  35   19   48 1
  36   19   49 1
  37   19   50 1
  38   20   21 2
  39   20   24 1
  40   21   22 1
  41   21   51 1
  42   22   23 2
  43   22   52 1
  44   23   24 1
  45   23   53 1
  46   25   26 am
  47   25   30 am
  48   26   27 2
  49   26   28 1
  50   28   29 ar
  51   28   35 ar
  52   29   30 1
  53   29   32 ar
  54   30   31 2
  55   32   33 ar
  56   32   54 1
  57   33   34 ar
  58   33   55 1
  59   34   35 ar
  60   34   56 1
  61   35   57 1

#	End of record

