#	Name: ASD01148794
#	Creating user name:	WinNT
#	Creation time:	15. 06. 2019 19:03

#	Modifying user name:	WinNT
#	Modification time:	15. 06. 2019 19:03

#	Program:	/corina/corina34_cracker 3.40 0067  02.08.2006

@<TRIPOS>MOLECULE
ASD01148794
  63   67    0    0    0
SMALL
NO_CHARGES


@<TRIPOS>ATOM
   1 N1             0.0434     1.3920    -0.2313 N.pl3   
   2 C2            -0.0126     0.0401    -0.1851 C.2     
   3 C3             1.2405    -0.4492     0.1117 C.2     
   4 C4             2.1186     0.7243     0.2541 C.2     
   5 C5             1.3184     1.8279     0.0303 C.2     
   6 C6             1.6241    -1.8605     0.2579 C.2     
   7 O7             2.0089    -2.4891    -0.7089 O.2     
   8 O8             1.5493    -2.4579     1.4641 O.3     
   9 C9            -1.0451     2.2278    -0.5124 C.ar    
  10 C10           -2.1002     2.3216     0.3854 C.ar    
  11 C11           -3.1717     3.1469     0.1057 C.ar    
  12 C12           -3.1945     3.8793    -1.0670 C.ar    
  13 C13           -2.1455     3.7877    -1.9633 C.ar    
  14 C14           -1.0684     2.9685    -1.6866 C.ar    
  15 S15           -4.5633     4.9311    -1.4203 S.o2    
  16 O16           -4.5911     5.0931    -2.8317 O.2     
  17 O17           -5.6616     4.4245    -0.6743 O.2     
  18 N18           -4.2140     6.4202    -0.7855 N.am    
  19 C19            4.4662     0.1977    -0.3378 C.ar    
  20 C20            3.5636     0.7218     0.5720 C.ar    
  21 C21            4.0094     1.2520     1.7951 C.ar    
  22 C22            5.3301     1.2621     2.1096 C.ar    
  23 C23            6.2723     0.7375     1.2065 C.ar    
  24 C24            7.6443     0.7377     1.5091 C.ar    
  25 C25            8.5327     0.2235     0.6149 C.ar    
  26 C26            8.1031    -0.3056    -0.6008 C.ar    
  27 C27            6.7825    -0.3228    -0.9293 C.ar    
  28 C28            5.8349     0.1993    -0.0305 C.ar    
  29 C29           -1.2457    -0.7940    -0.4195 C.3     
  30 C30            1.7596     3.2363     0.0656 C.ar    
  31 C31            2.8412     3.6522    -0.7142 C.ar    
  32 C32            3.2484     4.9693    -0.6766 C.ar    
  33 C33            2.5874     5.8787     0.1320 C.ar    
  34 C34            1.5143     5.4727     0.9076 C.ar    
  35 C35            1.0936     4.1598     0.8746 C.ar    
  36 Cl36           3.1066     7.5348     0.1740 Cl      
  37 C37            1.9441    -3.8535     1.5341 C.3     
  38 C38            1.7930    -4.3546     2.9718 C.3     
  39 H39           -2.0831     1.7496     1.3013 H       
  40 H40           -3.9928     3.2201     0.8034 H       
  41 H41           -2.1665     4.3604    -2.8787 H       
  42 H42           -0.2474     2.9007    -2.3849 H       
  43 H43           -4.5710     7.2205    -1.2012 H       
  44 H44           -3.6523     6.4920     0.0021 H       
  45 H45            4.1189    -0.2126    -1.2745 H       
  46 H46            3.2920     1.6569     2.4936 H       
  47 H47            5.6573     1.6732     3.0532 H       
  48 H48            7.9928     1.1445     2.4469 H       
  49 H49            9.5865     0.2258     0.8510 H       
  50 H50            8.8287    -0.7074    -1.2924 H       
  51 H51            6.4639    -0.7353    -1.8752 H       
  52 H52           -1.3230    -1.0385    -1.4789 H       
  53 H53           -1.1780    -1.7137     0.1617 H       
  54 H54           -2.1278    -0.2331    -0.1107 H       
  55 H55            3.3577     2.9438    -1.3449 H       
  56 H56            4.0848     5.2920    -1.2788 H       
  57 H57            1.0030     6.1868     1.5361 H       
  58 H58            0.2535     3.8454     1.4762 H       
  59 H59            1.3085    -4.4444     0.8747 H       
  60 H60            2.9836    -3.9531     1.2220 H       
  61 H61            0.7534    -4.2550     3.2840 H       
  62 H62            2.0894    -5.4022     3.0244 H       
  63 H63            2.4286    -3.7637     3.6313 H       
@<TRIPOS>BOND
   1    1    2 1
   2    1    5 1
   3    1    9 1
   4    2    3 2
   5    2   29 1
   6    3    4 1
   7    3    6 1
   8    4    5 2
   9    4   20 1
  10    5   30 1
  11    6    7 2
  12    6    8 1
  13    8   37 1
  14    9   10 ar
  15    9   14 ar
  16   10   11 ar
  17   10   39 1
  18   11   12 ar
  19   11   40 1
  20   12   13 ar
  21   12   15 1
  22   13   14 ar
  23   13   41 1
  24   14   42 1
  25   15   16 2
  26   15   17 2
  27   15   18 am
  28   18   43 1
  29   18   44 1
  30   19   20 ar
  31   19   28 ar
  32   19   45 1
  33   20   21 ar
  34   21   22 ar
  35   21   46 1
  36   22   23 ar
  37   22   47 1
  38   23   24 ar
  39   23   28 ar
  40   24   25 ar
  41   24   48 1
  42   25   26 ar
  43   25   49 1
  44   26   27 ar
  45   26   50 1
  46   27   28 ar
  47   27   51 1
  48   29   52 1
  49   29   53 1
  50   29   54 1
  51   30   31 ar
  52   30   35 ar
  53   31   32 ar
  54   31   55 1
  55   32   33 ar
  56   32   56 1
  57   33   34 ar
  58   33   36 1
  59   34   35 ar
  60   34   57 1
  61   35   58 1
  62   37   38 1
  63   37   59 1
  64   37   60 1
  65   38   61 1
  66   38   62 1
  67   38   63 1

#	End of record

