#	Name: ASD08178059
#	Creating user name:	WinNT
#	Creation time:	15. 06. 2019 21:18

#	Modifying user name:	WinNT
#	Modification time:	15. 06. 2019 21:18

#	Program:	/corina/corina34_cracker 3.40 0067  02.08.2006

@<TRIPOS>MOLECULE
ASD08178059
  66   71    0    0    0
SMALL
NO_CHARGES


@<TRIPOS>ATOM
   1 N1            -0.1113     1.2060     0.1207 N.2     
   2 N2            -0.0941    -0.0561     0.0921 N.2     
   3 C3             1.0305     1.8238     0.1621 C.2     
   4 S4             2.2858     0.6581     0.1651 S.3     
   5 C5             1.0717    -0.6202     0.1068 C.2     
   6 N6             1.2050     3.2031     0.1976 N.am    
   7 C7             0.1319     4.0185     0.1909 C.2     
   8 O8            -0.9859     3.5495     0.1539 O.2     
   9 C9             1.3423    -2.1025     0.0791 C.3     
  10 C10            1.4682    -2.5709    -1.3719 C.3     
  11 C11            1.7429    -4.0758    -1.4000 C.3     
  12 C12            1.8688    -4.5442    -2.8511 C.3     
  13 C13            2.1394    -6.0265    -2.8788 C.2     
  14 N14            1.2480    -6.9651    -2.9220 N.2     
  15 S15            3.7273    -6.7946    -2.8658 S.3     
  16 C16            2.9646    -8.3278    -2.9141 C.2     
  17 N17            1.6779    -8.1520    -2.9390 N.2     
  18 N18            3.6153    -9.5568    -2.9290 N.am    
  19 C19            2.8993   -10.6980    -2.9678 C.2     
  20 O20            1.6875   -10.6531    -2.9897 O.2     
  21 C21            3.6044   -12.0297    -2.9839 C.3     
  22 C22            0.3210     5.5131     0.2293 C.3     
  23 C23            1.1052     5.9893    -1.0148 C.3     
  24 C24            0.1284     6.9570    -1.7500 C.3     
  25 C25            0.0536     8.2116    -0.8271 C.3     
  26 C26           -0.7306     7.7355     0.4170 C.3     
  27 C27           -1.0559     6.2380     0.1286 C.3     
  28 C28            3.9923   -12.4570    -1.5353 C.3     
  29 C29            2.6887   -12.2507    -0.7052 C.3     
  30 C30            1.7322   -13.3609    -1.1972 C.3     
  31 C31            2.5481   -14.1335    -2.2783 C.3     
  32 C32            2.6480   -13.1400    -3.4759 C.3     
  33 C33           -1.2496     6.2778    -1.4284 C.3     
  34 C34            3.9967   -14.0194    -1.6851 C.3     
  35 H35            2.0990     3.5783     0.2272 H       
  36 H36            2.2706    -2.3123     0.6105 H       
  37 H37            0.5201    -2.6310     0.5615 H       
  38 H38            0.5399    -2.3611    -1.9033 H       
  39 H39            2.2904    -2.0424    -1.8543 H       
  40 H40            2.6712    -4.2856    -0.8687 H       
  41 H41            0.9207    -4.6043    -0.9176 H       
  42 H42            0.9405    -4.3344    -3.3825 H       
  43 H43            2.6910    -4.0157    -3.3335 H       
  44 H44            4.5845    -9.5927    -2.9115 H       
  45 H45            4.4910   -11.9818    -3.6162 H       
  46 H46            0.8409     5.8063     1.1414 H       
  47 H47            2.0097     6.5183    -0.7143 H       
  48 H48            1.3540     5.1423    -1.6542 H       
  49 H49            0.3492     7.1501    -2.7997 H       
  50 H50            1.0552     8.5353    -0.5440 H       
  51 H51           -0.4808     9.0196    -1.3269 H       
  52 H52           -0.1146     7.8251     1.3117 H       
  53 H53           -1.6505     8.3094     0.5289 H       
  54 H54           -1.8663     5.8050     0.7149 H       
  55 H55            4.8938   -11.9986    -1.1286 H       
  56 H56            2.8930   -12.3692     0.3589 H       
  57 H57            2.2633   -11.2670    -0.9040 H       
  58 H58            1.4664   -14.0253    -0.3750 H       
  59 H59            0.8366   -12.9231    -1.6379 H       
  60 H60            2.1917   -15.1352    -2.5186 H       
  61 H61            1.6677   -12.7226    -3.7061 H       
  62 H62            3.0641   -13.6399    -4.3506 H       
  63 H63           -2.0922     6.9048    -1.7196 H       
  64 H64           -1.3225     5.2782    -1.8569 H       
  65 H65            4.7551   -14.3604    -2.3898 H       
  66 H66            4.0848   -14.5221    -0.7219 H       
@<TRIPOS>BOND
   1    1    2 1
   2    1    3 2
   3    2    5 2
   4    3    4 1
   5    3    6 1
   6    4    5 1
   7    5    9 1
   8    6    7 am
   9    6   35 1
  10    7    8 2
  11    7   22 1
  12    9   10 1
  13    9   36 1
  14    9   37 1
  15   10   11 1
  16   10   38 1
  17   10   39 1
  18   11   12 1
  19   11   40 1
  20   11   41 1
  21   12   13 1
  22   12   42 1
  23   12   43 1
  24   13   14 2
  25   13   15 1
  26   14   17 1
  27   15   16 1
  28   16   17 2
  29   16   18 1
  30   18   19 am
  31   18   44 1
  32   19   20 2
  33   19   21 1
  34   21   28 1
  35   21   32 1
  36   21   45 1
  37   22   23 1
  38   22   27 1
  39   22   46 1
  40   23   24 1
  41   23   47 1
  42   23   48 1
  43   24   25 1
  44   24   33 1
  45   24   49 1
  46   25   26 1
  47   25   50 1
  48   25   51 1
  49   26   27 1
  50   26   52 1
  51   26   53 1
  52   27   33 1
  53   27   54 1
  54   28   29 1
  55   28   34 1
  56   28   55 1
  57   29   30 1
  58   29   56 1
  59   29   57 1
  60   30   31 1
  61   30   58 1
  62   30   59 1
  63   31   32 1
  64   31   34 1
  65   31   60 1
  66   32   61 1
  67   32   62 1
  68   33   63 1
  69   33   64 1
  70   34   65 1
  71   34   66 1

#	End of record

