#	Name: ASD00310305
#	Creating user name:	WinNT
#	Creation time:	15. 06. 2019 18:34

#	Modifying user name:	WinNT
#	Modification time:	15. 06. 2019 18:34

#	Program:	/corina/corina34_cracker 3.40 0067  02.08.2006

@<TRIPOS>MOLECULE
ASD00310305
  27   28    0    0    0
SMALL
NO_CHARGES


@<TRIPOS>ATOM
   1 N1            -0.0179     1.4702     0.0101 N.3     
   2 C2             0.0021    -0.0041     0.0020 C.3     
   3 C3             1.4820    -0.4413     0.0110 C.3     
   4 C4             2.2089     0.7978     0.5967 C.3     
   5 C5             1.3770     1.9600    -0.0006 C.3     
   6 C6            -0.7682     1.9929    -1.1396 C.3     
   7 C7             1.6772    -1.6429     0.8993 C.ar    
   8 C8             2.1994    -2.8112     0.3764 C.ar    
   9 C9             2.3791    -3.9134     1.1909 C.ar    
  10 C10            2.0363    -3.8473     2.5294 C.ar    
  11 C11            1.5138    -2.6780     3.0521 C.ar    
  12 C12            1.3394    -1.5747     2.2381 C.ar    
  13 Br13           2.2812    -5.3551     3.6440 Br      
  14 H14           -0.5030    -0.3866     0.8889 H       
  15 H15           -0.4892    -0.3766    -0.8968 H       
  16 H16            1.8287    -0.6487    -1.0014 H       
  17 H17            2.1590     0.8012     1.6856 H       
  18 H18            3.2429     0.8417     0.2547 H       
  19 H19            1.6974     2.1707    -1.0209 H       
  20 H20            1.4709     2.8516     0.6194 H       
  21 H21           -1.7949     1.6292    -1.0991 H       
  22 H22           -0.7672     3.0824    -1.1092 H       
  23 H23           -0.2992     1.6548    -2.0636 H       
  24 H24            2.4667    -2.8629    -0.6687 H       
  25 H25            2.7867    -4.8262     0.7822 H       
  26 H26            1.2457    -2.6261     4.0970 H       
  27 H27            0.9353    -0.6604     2.6470 H       
@<TRIPOS>BOND
   1    1    2 1
   2    1    5 1
   3    1    6 1
   4    2    3 1
   5    2   14 1
   6    2   15 1
   7    3    4 1
   8    3    7 1
   9    3   16 1
  10    4    5 1
  11    4   17 1
  12    4   18 1
  13    5   19 1
  14    5   20 1
  15    6   21 1
  16    6   22 1
  17    6   23 1
  18    7    8 ar
  19    7   12 ar
  20    8    9 ar
  21    8   24 1
  22    9   10 ar
  23    9   25 1
  24   10   11 ar
  25   10   13 1
  26   11   12 ar
  27   11   26 1
  28   12   27 1

#	End of record

