#	Name: ASD02198076
#	Creating user name:	WinNT
#	Creation time:	15. 06. 2019 20:18

#	Modifying user name:	WinNT
#	Modification time:	15. 06. 2019 20:18

#	Program:	/corina/corina34_cracker 3.40 0067  02.08.2006

@<TRIPOS>MOLECULE
ASD02198076
  53   56    0    0    0
SMALL
NO_CHARGES


@<TRIPOS>ATOM
   1 C1            -0.0166     1.3744     0.0096 C.2     
   2 C2             0.0021    -0.0041     0.0020 C.2     
   3 C3            -1.1876    -0.8011     0.0086 C.1     
   4 S4             1.5679     2.0035    -0.0022 S.3     
   5 C5             2.2765     0.3966    -0.0175 C.2     
   6 C6             1.2839    -0.5519    -0.0132 C.2     
   7 C7             3.6608     0.1212    -0.0327 C.2     
   8 C8             4.6296     1.2258    -0.0359 C.2     
   9 O9             4.0530    -1.0347    -0.0430 O.2     
  10 N10            1.5315    -1.9170    -0.0224 N.pl3   
  11 N11           -1.1600     2.1393     0.0193 N.pl3   
  12 N12           -2.1314    -1.4334     0.0139 N.1     
  13 C13            5.9875     1.0812    -0.0501 C.2     
  14 C14           -1.0633     3.6011     0.0268 C.3     
  15 C15           -3.6833     6.2838     0.2922 C.3     
  16 N16           -2.3720     5.6709     0.0444 N.3     
  17 C17           -2.4690     4.2051     0.0369 C.3     
  18 C18            6.6886     2.2573    -0.0503 C.2     
  19 C19            5.9175     3.3822    -0.0364 C.2     
  20 S20            4.2169     2.9351    -0.0299 S.3     
  21 C21            6.4328     4.7664    -0.0328 C.ar    
  22 C22            5.5389     5.8382    -0.0181 C.ar    
  23 C23            6.0375     7.1289    -0.0150 C.ar    
  24 C24            7.4138     7.3080    -0.0267 C.ar    
  25 C25            8.2428     6.2008    -0.0410 C.ar    
  26 N26            7.7441     4.9819    -0.0382 N.ar    
  27 C27           -3.5205     7.7985     0.4378 C.3     
  28 C28           -2.9049     8.3663    -0.8441 C.3     
  29 C29           -1.5629     7.6769    -1.1053 C.3     
  30 C30           -1.7824     6.1657    -1.2061 C.3     
  31 H31            2.4445    -2.2443    -0.0326 H       
  32 H32            0.7915    -2.5442    -0.0188 H       
  33 H33           -2.0302     1.7108     0.0212 H       
  34 H34            6.4703     0.1152    -0.0599 H       
  35 H35           -0.5223     3.9249     0.9159 H       
  36 H36           -0.5310     3.9346    -0.8640 H       
  37 H37           -4.3485     6.0687    -0.5440 H       
  38 H38           -4.1081     5.8744     1.2087 H       
  39 H39           -3.0100     3.8813    -0.8522 H       
  40 H40           -3.0013     3.8717     0.9277 H       
  41 H41            7.7680     2.2916    -0.0603 H       
  42 H42            4.4733     5.6626    -0.0096 H       
  43 H43            5.3704     7.9782    -0.0040 H       
  44 H44            7.8337     8.3031    -0.0249 H       
  45 H45            9.3141     6.3377    -0.0501 H       
  46 H46           -4.4960     8.2548     0.6062 H       
  47 H47           -2.8663     8.0147     1.2824 H       
  48 H48           -3.5772     8.1845    -1.6826 H       
  49 H49           -2.7472     9.4386    -0.7284 H       
  50 H50           -1.1398     8.0463    -2.0394 H       
  51 H51           -0.8779     7.8912    -0.2850 H       
  52 H52           -0.8267     5.6706    -1.3779 H       
  53 H53           -2.4566     5.9512    -2.0353 H       
@<TRIPOS>BOND
   1    1    2 2
   2    1    4 1
   3    1   11 1
   4    2    3 1
   5    2    6 1
   6    3   12 3
   7    4    5 1
   8    5    6 2
   9    5    7 1
  10    6   10 1
  11    7    8 1
  12    7    9 2
  13    8   13 2
  14    8   20 1
  15   10   31 1
  16   10   32 1
  17   11   14 1
  18   11   33 1
  19   13   18 1
  20   13   34 1
  21   14   17 1
  22   14   35 1
  23   14   36 1
  24   15   16 1
  25   15   27 1
  26   15   37 1
  27   15   38 1
  28   16   17 1
  29   16   30 1
  30   17   39 1
  31   17   40 1
  32   18   19 2
  33   18   41 1
  34   19   20 1
  35   19   21 1
  36   21   22 ar
  37   21   26 ar
  38   22   23 ar
  39   22   42 1
  40   23   24 ar
  41   23   43 1
  42   24   25 ar
  43   24   44 1
  44   25   26 ar
  45   25   45 1
  46   27   28 1
  47   27   46 1
  48   27   47 1
  49   28   29 1
  50   28   48 1
  51   28   49 1
  52   29   30 1
  53   29   50 1
  54   29   51 1
  55   30   52 1
  56   30   53 1

#	End of record

