#	Name: ASD01148756
#	Creating user name:	WinNT
#	Creation time:	15. 06. 2019 19:03

#	Modifying user name:	WinNT
#	Modification time:	15. 06. 2019 19:03

#	Program:	/corina/corina34_cracker 3.40 0067  02.08.2006

@<TRIPOS>MOLECULE
ASD01148756
  56   58    0    0    0
SMALL
NO_CHARGES


@<TRIPOS>ATOM
   1 N1            -0.0152     1.3475     0.0831 N.pl3   
   2 C2             0.0017     0.0059    -0.1105 C.2     
   3 C3             1.3168    -0.4048    -0.1566 C.2     
   4 C4             2.1200     0.7519     0.0186 C.2     
   5 C5             1.2785     1.8073     0.1626 C.2     
   6 C6             1.7974    -1.7836    -0.3509 C.2     
   7 O7             1.0002    -2.6915    -0.4901 O.2     
   8 N8             3.1205    -2.0390    -0.3745 N.am    
   9 C9             3.5985    -3.4102    -0.5678 C.3     
  10 C10            5.1284    -3.4237    -0.5544 C.3     
  11 N11            5.6077    -4.7987    -0.7482 N.3     
  12 C12            7.0585    -4.8230    -0.9777 C.3     
  13 C13            5.2407    -5.6497     0.3916 C.3     
  14 C14           -1.1666     2.1399     0.1807 C.ar    
  15 C15           -2.0079     2.0126     1.2779 C.ar    
  16 C16           -3.1422     2.7951     1.3712 C.ar    
  17 C17           -3.4406     3.7043     0.3730 C.ar    
  18 C18           -2.6047     3.8335    -0.7210 C.ar    
  19 C19           -1.4657     3.0582    -0.8170 C.ar    
  20 S20           -4.8892     4.7000     0.4950 S.o2    
  21 O21           -5.2236     5.0862    -0.8310 O.2     
  22 O22           -5.7843     4.0029     1.3507 O.2     
  23 N23           -4.4645     6.0875     1.2931 N.am    
  24 C24           -1.2075    -0.8825    -0.2510 C.3     
  25 C25            1.6844     3.2142     0.3694 C.ar    
  26 C26            0.7894     4.1263     0.9303 C.ar    
  27 C27            1.1738     5.4372     1.1213 C.ar    
  28 C28            2.4448     5.8489     0.7573 C.ar    
  29 C29            3.3370     4.9486     0.2000 C.ar    
  30 C30            2.9659     3.6336     0.0099 C.ar    
  31 Cl31           2.9213     7.5005     1.0002 Cl      
  32 H32            3.1993     0.7861     0.0349 H       
  33 H33            3.7563    -1.3148    -0.2635 H       
  34 H34            3.2225    -4.0428     0.2363 H       
  35 H35            3.2403    -3.7883    -1.5253 H       
  36 H36            5.5044    -2.7911    -1.3585 H       
  37 H37            5.4867    -3.0456     0.4031 H       
  38 H38            7.5699    -4.3928    -0.1166 H       
  39 H39            7.3869    -5.8529    -1.1181 H       
  40 H40            7.2952    -4.2416    -1.8688 H       
  41 H41            4.1559    -5.6692     0.4960 H       
  42 H42            5.6077    -6.6620     0.2222 H       
  43 H43            5.6863    -5.2493     1.3023 H       
  44 H44           -1.7757     1.3021     2.0575 H       
  45 H45           -3.7969     2.6965     2.2244 H       
  46 H46           -2.8404     4.5445    -1.4990 H       
  47 H47           -0.8107     3.1629    -1.6692 H       
  48 H48           -4.9299     6.9174     1.1044 H       
  49 H49           -3.7504     6.0703     1.9494 H       
  50 H50           -1.4887    -0.9498    -1.3019 H       
  51 H51           -0.9730    -1.8777     0.1268 H       
  52 H52           -2.0352    -0.4626     0.3205 H       
  53 H53           -0.2024     3.8064     1.2139 H       
  54 H54            0.4820     6.1440     1.5553 H       
  55 H55            4.3268     5.2755    -0.0827 H       
  56 H56            3.6643     2.9311    -0.4204 H       
@<TRIPOS>BOND
   1    1    2 1
   2    1    5 1
   3    1   14 1
   4    2    3 2
   5    2   24 1
   6    3    4 1
   7    3    6 1
   8    4    5 2
   9    4   32 1
  10    5   25 1
  11    6    7 2
  12    6    8 am
  13    8    9 1
  14    8   33 1
  15    9   10 1
  16    9   34 1
  17    9   35 1
  18   10   11 1
  19   10   36 1
  20   10   37 1
  21   11   12 1
  22   11   13 1
  23   12   38 1
  24   12   39 1
  25   12   40 1
  26   13   41 1
  27   13   42 1
  28   13   43 1
  29   14   15 ar
  30   14   19 ar
  31   15   16 ar
  32   15   44 1
  33   16   17 ar
  34   16   45 1
  35   17   18 ar
  36   17   20 1
  37   18   19 ar
  38   18   46 1
  39   19   47 1
  40   20   21 2
  41   20   22 2
  42   20   23 am
  43   23   48 1
  44   23   49 1
  45   24   50 1
  46   24   51 1
  47   24   52 1
  48   25   26 ar
  49   25   30 ar
  50   26   27 ar
  51   26   53 1
  52   27   28 ar
  53   27   54 1
  54   28   29 ar
  55   28   31 1
  56   29   30 ar
  57   29   55 1
  58   30   56 1

#	End of record

