#	Name: ASD03431002
#	Creating user name:	WinNT
#	Creation time:	15. 06. 2019 20:41

#	Modifying user name:	WinNT
#	Modification time:	15. 06. 2019 20:41

#	Program:	/corina/corina34_cracker 3.40 0067  02.08.2006

@<TRIPOS>MOLECULE
ASD03431002
  47   52    0    0    0
SMALL
NO_CHARGES


@<TRIPOS>ATOM
   1 O1            -0.0164     1.3592     0.0095 O.3     
   2 C2             0.0021    -0.0041     0.0020 C.ar    
   3 C3             1.2404    -0.4888    -0.4127 C.ar    
   4 C4             2.1067     0.7126    -0.6759 C.3     
   5 C5             1.3354     1.8556    -0.0007 C.3     
   6 O6            -1.6203    -3.3131     0.5209 O.3     
   7 C7            -0.8514    -4.5139     0.7025 C.3     
   8 C8             0.4062    -4.2490    -0.1587 C.3     
   9 C9             0.4623    -2.7340    -0.1719 C.ar    
  10 C10           -0.7796    -2.2761     0.2502 C.ar    
  11 C11            1.4629    -1.8463    -0.5030 C.ar    
  12 C12           -1.0003    -0.9062     0.3357 C.ar    
  13 N13            4.3478     0.7107    -1.1247 N.am    
  14 C14            3.4855     0.5577    -0.1004 C.2     
  15 C15            2.3125     0.9647    -2.1397 C.ar    
  16 C16            1.4578     1.1822    -3.1977 C.ar    
  17 C17            1.9651     1.3914    -4.4677 C.ar    
  18 C18            3.3328     1.3824    -4.6733 C.ar    
  19 C19            4.1938     1.1636    -3.6169 C.ar    
  20 C20            3.6909     0.9509    -2.3345 C.ar    
  21 O21            3.7674     0.3380     1.0586 O.2     
  22 C22            5.8043     0.6349    -0.9859 C.3     
  23 O23            6.3777    -1.7184    -0.2275 O.3     
  24 C24            6.2548    -0.7888    -1.1890 C.2     
  25 C25            6.6016    -1.3441    -2.3640 C.2     
  26 C26            6.9539    -2.6866    -2.0944 C.2     
  27 C27            6.8013    -2.8712    -0.7708 C.2     
  28 C28            7.0616    -4.1541    -0.0241 C.3     
  29 F29            8.3935    -4.1831     0.4030 F       
  30 F30            6.2140    -4.2275     1.0865 F       
  31 F31            6.8189    -5.2427    -0.8687 F       
  32 Cl32           5.9088     1.1527    -3.8865 Cl      
  33 H33            1.4069     2.7707    -0.5885 H       
  34 H34            1.6955     2.0180     1.0152 H       
  35 H35           -0.5813    -4.6447     1.7504 H       
  36 H36           -1.3973    -5.3816     0.3321 H       
  37 H37            1.2959    -4.6678     0.3116 H       
  38 H38            0.2782    -4.6430    -1.1669 H       
  39 H39            2.4227    -2.2145    -0.8340 H       
  40 H40           -1.9611    -0.5394     0.6653 H       
  41 H41            0.3900     1.1890    -3.0357 H       
  42 H42            1.2945     1.5610    -5.2971 H       
  43 H43            3.7287     1.5470    -5.6646 H       
  44 H44            6.2742     1.2747    -1.7328 H       
  45 H45            6.0921     0.9684     0.0111 H       
  46 H46            6.6089    -0.8580    -3.3284 H       
  47 H47            7.2822    -3.4226    -2.8133 H       
@<TRIPOS>BOND
   1    1    2 1
   2    1    5 1
   3    2    3 ar
   4    2   12 ar
   5    3    4 1
   6    3   11 ar
   7    4    5 1
   8    4   14 1
   9    4   15 1
  10    5   33 1
  11    5   34 1
  12    6    7 1
  13    6   10 1
  14    7    8 1
  15    7   35 1
  16    7   36 1
  17    8    9 1
  18    8   37 1
  19    8   38 1
  20    9   10 ar
  21    9   11 ar
  22   10   12 ar
  23   11   39 1
  24   12   40 1
  25   13   14 am
  26   13   20 1
  27   13   22 1
  28   14   21 2
  29   15   16 ar
  30   15   20 ar
  31   16   17 ar
  32   16   41 1
  33   17   18 ar
  34   17   42 1
  35   18   19 ar
  36   18   43 1
  37   19   20 ar
  38   19   32 1
  39   22   24 1
  40   22   44 1
  41   22   45 1
  42   23   24 1
  43   23   27 1
  44   24   25 2
  45   25   26 1
  46   25   46 1
  47   26   27 2
  48   26   47 1
  49   27   28 1
  50   28   29 1
  51   28   30 1
  52   28   31 1

#	End of record

