#	Name: ASD01150439
#	Creating user name:	WinNT
#	Creation time:	15. 06. 2019 19:04

#	Modifying user name:	WinNT
#	Modification time:	15. 06. 2019 19:04

#	Program:	/corina/corina34_cracker 3.40 0067  02.08.2006

@<TRIPOS>MOLECULE
ASD01150439
  48   50    0    0    0
SMALL
NO_CHARGES


@<TRIPOS>ATOM
   1 C1            -0.0166     1.3766     0.0096 C.ar    
   2 C2             0.0021    -0.0041     0.0020 C.ar    
   3 C3            -1.1853    -0.7134     0.0100 C.ar    
   4 C4            -2.3946    -0.0431     0.0257 C.ar    
   5 C5            -2.4204     1.3379     0.0329 C.ar    
   6 C6            -1.2299     2.0532     0.0306 C.ar    
   7 N7            -1.2524     3.4521     0.0379 N.am    
   8 C8            -1.9293     4.0990     1.0030 C.2     
   9 N9            -1.9717     5.4439     1.0407 N.am    
  10 C10           -1.3286     6.1668     0.1004 C.2     
  11 C11           -0.5864     5.4653    -0.9579 C.2     
  12 N12           -0.5652     4.1585    -0.9563 N.2     
  13 O13           -1.3626     7.3830     0.1274 O.2     
  14 C14           -2.7172     6.1231     2.1032 C.3     
  15 O15           -2.5134     3.4583     1.8559 O.2     
  16 C16           -1.8056     6.3702     3.2775 C.ar    
  17 C17           -1.0797     7.5442     3.3537 C.ar    
  18 C18           -0.2434     7.7713     4.4305 C.ar    
  19 C19           -0.1328     6.8234     5.4321 C.ar    
  20 C20           -0.8595     5.6486     5.3553 C.ar    
  21 C21           -1.6997     5.4251     4.2809 C.ar    
  22 O22            0.0714     6.1647    -1.9189 O.3     
  23 C23            0.7680     5.4073    -2.9105 C.3     
  24 Cl24           0.9178     7.1077     6.7845 Cl      
  25 C25            1.2776     2.1486     0.0014 C.3     
  26 C26            1.6649     2.5101     1.4367 C.3     
  27 O27            2.8921     3.2422     1.4290 O.3     
  28 C28            3.3454     3.6307     2.7273 C.3     
  29 H29            0.9449    -0.5307    -0.0105 H       
  30 H30           -1.1679    -1.7932     0.0037 H       
  31 H31           -3.3199    -0.6000     0.0319 H       
  32 H32           -3.3653     1.8608     0.0443 H       
  33 H33           -3.0954     7.0750     1.7304 H       
  34 H34           -3.5531     5.4980     2.4174 H       
  35 H35           -1.1659     8.2840     2.5716 H       
  36 H36            0.3238     8.6885     4.4897 H       
  37 H37           -0.7735     4.9082     6.1369 H       
  38 H38           -2.2670     4.5080     4.2208 H       
  39 H39            0.0621     4.7702    -3.4433 H       
  40 H40            1.2484     6.0861    -3.6151 H       
  41 H41            1.5248     4.7879    -2.4292 H       
  42 H42            2.0625     1.5372    -0.4437 H       
  43 H43            1.1528     3.0608    -0.5820 H       
  44 H44            0.8799     3.1215     1.8819 H       
  45 H45            1.7897     1.5979     2.0201 H       
  46 H46            2.5953     4.2653     3.1992 H       
  47 H47            3.5050     2.7417     3.3374 H       
  48 H48            4.2816     4.1813     2.6356 H       
@<TRIPOS>BOND
   1    1    2 ar
   2    1   25 1
   3    1    6 ar
   4    2    3 ar
   5    2   29 1
   6    3    4 ar
   7    3   30 1
   8    4    5 ar
   9    4   31 1
  10    5    6 ar
  11    5   32 1
  12    6    7 1
  13    7    8 am
  14    7   12 1
  15    8    9 am
  16    8   15 2
  17    9   10 am
  18    9   14 1
  19   10   11 1
  20   10   13 2
  21   11   12 2
  22   11   22 1
  23   14   16 1
  24   14   33 1
  25   14   34 1
  26   16   17 ar
  27   16   21 ar
  28   17   18 ar
  29   17   35 1
  30   18   19 ar
  31   18   36 1
  32   19   20 ar
  33   19   24 1
  34   20   21 ar
  35   20   37 1
  36   21   38 1
  37   22   23 1
  38   23   39 1
  39   23   40 1
  40   23   41 1
  41   25   26 1
  42   25   42 1
  43   25   43 1
  44   26   27 1
  45   26   44 1
  46   26   45 1
  47   27   28 1
  48   28   46 1
  49   28   47 1
  50   28   48 1

#	End of record

