#	Name: ASD07930318
#	Creating user name:	WinNT
#	Creation time:	15. 06. 2019 21:12

#	Modifying user name:	WinNT
#	Modification time:	15. 06. 2019 21:12

#	Program:	/corina/corina34_cracker 3.40 0067  02.08.2006

@<TRIPOS>MOLECULE
ASD07930318
  32   33    0    0    0
SMALL
NO_CHARGES


@<TRIPOS>ATOM
   1 N1            -0.2183     1.4059    -0.1057 N.pl3   
   2 C2            -0.3472    -0.0550    -0.0948 C.3     
   3 C3             0.6618    -0.6447     0.9003 C.3     
   4 S4             2.3260    -0.0746     0.4317 S.o2    
   5 N5             2.1167     1.5698     0.2631 N.am    
   6 C6             0.9901     1.9872    -0.4313 C.2     
   7 C7            -1.7450    -0.4338     0.3218 C.2     
   8 C8            -2.3438    -0.0445     1.4484 C.2     
   9 N9             1.0707     2.8976    -1.3605 N.2     
  10 C10            3.0747     2.5278     0.8206 C.3     
  11 O11            3.2305    -0.2103     1.5193 O.2     
  12 O12            2.6657    -0.5272    -0.8718 O.2     
  13 C13           -0.0641    -0.6034    -1.4948 C.3     
  14 S14           -2.8393    -1.4507    -0.6067 S.3     
  15 C15           -4.0823    -1.2916     0.6275 C.2     
  16 C16           -3.6331    -0.5190     1.6178 C.2     
  17 C17           -1.6675     0.8441     2.4604 C.3     
  18 F18           -2.5983     1.2447     3.4250 F       
  19 F19           -0.6288     0.1400     3.0789 F       
  20 F20           -1.1478     1.9723     1.8169 F       
  21 H21           -0.9823     1.9626     0.1117 H       
  22 H22            0.4265    -0.3027     1.9082 H       
  23 H23            0.6220    -1.7333     0.8624 H       
  24 H24            1.9286     3.2954    -1.5767 H       
  25 H25            3.8455     2.7432     0.0806 H       
  26 H26            2.5557     3.4495     1.0835 H       
  27 H27            3.5358     2.1033     1.7124 H       
  28 H28            0.9058    -0.2423    -1.8372 H       
  29 H29           -0.0558    -1.6929    -1.4635 H       
  30 H30           -0.8405    -0.2655    -2.1812 H       
  31 H31           -5.0608    -1.7469     0.5880 H       
  32 H32           -4.2294    -0.2830     2.4867 H       
@<TRIPOS>BOND
   1    1    2 1
   2    1    6 1
   3    1   21 1
   4    2    3 1
   5    2    7 1
   6    2   13 1
   7    3    4 1
   8    3   22 1
   9    3   23 1
  10    4    5 am
  11    4   11 2
  12    4   12 2
  13    5    6 1
  14    5   10 1
  15    6    9 2
  16    7   14 1
  17    7    8 2
  18    8   17 1
  19    8   16 1
  20    9   24 1
  21   10   25 1
  22   10   26 1
  23   10   27 1
  24   13   28 1
  25   13   29 1
  26   13   30 1
  27   14   15 1
  28   15   16 2
  29   15   31 1
  30   16   32 1
  31   17   18 1
  32   17   19 1
  33   17   20 1

#	End of record

