#	Name: ASD03740197
#	Creating user name:	WinNT
#	Creation time:	15. 06. 2019 20:46

#	Modifying user name:	WinNT
#	Modification time:	15. 06. 2019 20:46

#	Program:	/corina/corina34_cracker 3.40 0067  02.08.2006

@<TRIPOS>MOLECULE
ASD03740197
  53   56    0    0    0
SMALL
NO_CHARGES


@<TRIPOS>ATOM
   1 C1            -0.0168     1.3849     0.0097 C.ar    
   2 C2             0.0021    -0.0041     0.0020 C.ar    
   3 C3            -1.1618    -0.7196     0.0088 C.ar    
   4 C4            -2.3848    -0.0537     0.0241 C.ar    
   5 C5            -2.4054     1.3545     0.0323 C.ar    
   6 C6            -1.2009     2.0643     0.0303 C.ar    
   7 N7            -3.6909    -0.4687     0.0340 N.pl3   
   8 N8            -4.5286     0.6512     0.0482 N.2     
   9 C9            -3.8151     1.7441     0.0477 C.2     
  10 O10           -4.2956     3.0156     0.0599 O.3     
  11 C11           -4.1385    -1.8636     0.0294 C.3     
  12 C12           -4.2784    -2.3509     1.4486 C.ar    
  13 C13           -5.4824    -2.2087     2.1127 C.ar    
  14 C14           -5.6107    -2.6556     3.4145 C.ar    
  15 C15           -4.5351    -3.2451     4.0521 C.ar    
  16 C16           -3.3314    -3.3882     3.3877 C.ar    
  17 C17           -3.2044    -2.9452     2.0844 C.ar    
  18 C18           -5.7159     3.1723     0.0740 C.3     
  19 C19           -6.0646     4.6620     0.0863 C.3     
  20 N20           -5.6180     5.2798    -1.1694 N.3     
  21 C21           -6.3699     4.7489    -2.3137 C.3     
  22 C22            1.2821     2.1491     0.0014 C.3     
  23 C23           -5.7184     6.7432    -1.1008 C.3     
  24 C24           -5.1114     7.3573    -2.3643 C.3     
  25 C25           -5.8612     6.8325    -3.5919 C.3     
  26 C26           -5.7823     5.3035    -3.6134 C.3     
  27 H27            0.9482    -0.5247    -0.0098 H       
  28 H28           -1.1335    -1.7992     0.0021 H       
  29 H29           -1.2072     3.1442     0.0365 H       
  30 H30           -5.1018    -1.9345    -0.4757 H       
  31 H31           -3.4070    -2.4782    -0.4953 H       
  32 H32           -6.3227    -1.7481     1.6146 H       
  33 H33           -6.5512    -2.5439     3.9336 H       
  34 H34           -4.6352    -3.5937     5.0694 H       
  35 H35           -2.4910    -3.8484     3.8859 H       
  36 H36           -2.2639    -3.0569     1.5653 H       
  37 H37           -6.1417     2.7068    -0.8149 H       
  38 H38           -6.1252     2.6960     0.9649 H       
  39 H39           -7.1434     4.7818     0.1865 H       
  40 H40           -5.5657     5.1450     0.9264 H       
  41 H41           -6.3021     3.6611    -2.3196 H       
  42 H42           -7.4150     5.0472    -2.2313 H       
  43 H43            1.5854     2.3389    -1.0282 H       
  44 H44            1.1489     3.0976     0.5216 H       
  45 H45            2.0514     1.5635     0.5047 H       
  46 H46           -6.7667     7.0320    -1.0242 H       
  47 H47           -5.1776     7.1037    -0.2259 H       
  48 H48           -5.2002     8.4428    -2.3202 H       
  49 H49           -4.0596     7.0802    -2.4344 H       
  50 H50           -6.9049     7.1427    -3.5414 H       
  51 H51           -5.4045     7.2336    -4.4967 H       
  52 H52           -4.7410     4.9941    -3.7032 H       
  53 H53           -6.3504     4.9217    -4.4617 H       
@<TRIPOS>BOND
   1    1    2 ar
   2    1   22 1
   3    1    6 ar
   4    2    3 ar
   5    2   27 1
   6    3    4 ar
   7    3   28 1
   8    4    5 ar
   9    4    7 1
  10    5    6 ar
  11    5    9 1
  12    6   29 1
  13    7    8 1
  14    7   11 1
  15    8    9 2
  16    9   10 1
  17   10   18 1
  18   11   12 1
  19   11   30 1
  20   11   31 1
  21   12   13 ar
  22   12   17 ar
  23   13   14 ar
  24   13   32 1
  25   14   15 ar
  26   14   33 1
  27   15   16 ar
  28   15   34 1
  29   16   17 ar
  30   16   35 1
  31   17   36 1
  32   18   19 1
  33   18   37 1
  34   18   38 1
  35   19   20 1
  36   19   39 1
  37   19   40 1
  38   20   23 1
  39   20   21 1
  40   21   26 1
  41   21   41 1
  42   21   42 1
  43   22   43 1
  44   22   44 1
  45   22   45 1
  46   23   24 1
  47   23   46 1
  48   23   47 1
  49   24   25 1
  50   24   48 1
  51   24   49 1
  52   25   26 1
  53   25   50 1
  54   25   51 1
  55   26   52 1
  56   26   53 1

#	End of record

