#	Name: ASD01914612
#	Creating user name:	WinNT
#	Creation time:	15. 06. 2019 20:03

#	Modifying user name:	WinNT
#	Modification time:	15. 06. 2019 20:03

#	Program:	/corina/corina34_cracker 3.40 0067  02.08.2006

@<TRIPOS>MOLECULE
ASD01914612
  60   65    0    0    0
SMALL
NO_CHARGES


@<TRIPOS>ATOM
   1 N1            -0.0158     1.3174     0.0093 N.ar    
   2 C2             0.0021    -0.0041     0.0020 C.ar    
   3 C3             1.2227    -0.7012    -0.0134 C.ar    
   4 N4             2.3629    -0.0510    -0.0208 N.ar    
   5 C5             2.3655     1.2869    -0.0135 C.ar    
   6 C6             3.5712     2.0083    -0.0215 C.ar    
   7 C7             3.5442     3.3691    -0.0144 C.ar    
   8 C8             2.3353     4.0637     0.0011 C.ar    
   9 C9             1.1472     3.4013     0.0098 C.ar    
  10 C10            1.1335     1.9936     0.0019 C.ar    
  11 C11           -1.2748    -0.7570     0.0107 C.2     
  12 O12           -1.2637    -1.9719     0.0040 O.2     
  13 N13           -2.4480    -0.0938     0.0259 N.am    
  14 C14           -3.7099    -0.8379     0.0344 C.3     
  15 C15           -4.8818     0.1456     0.0514 C.3     
  16 C16           -6.1997    -0.6315     0.0603 C.3     
  17 C17           -6.2604    -1.5185     1.3055 C.3     
  18 C18           -5.0885    -2.5020     1.2885 C.3     
  19 C19           -5.1739    -3.3756     0.0354 C.3     
  20 C20           -5.1133    -2.4886    -1.2098 C.3     
  21 C21           -3.7954    -1.7115    -1.2187 C.3     
  22 C22           -6.2852    -1.5051    -1.1928 C.3     
  23 C23           -3.7705    -1.7249     1.2796 C.3     
  24 N24           -7.3218     0.3102     0.0765 N.am    
  25 C25           -8.5883    -0.1506     0.0866 C.2     
  26 O26           -8.7994    -1.3473     0.0823 O.2     
  27 C27           -9.7232     0.8018     0.1030 C.ar    
  28 C28          -11.0299     0.3191     0.1134 C.ar    
  29 C29          -12.0810     1.2223     0.1292 C.ar    
  30 C30          -11.7885     2.5773     0.1340 C.ar    
  31 C31          -10.4648     2.9864     0.1230 C.ar    
  32 N32           -9.4862     2.1076     0.1132 N.ar    
  33 C33          -10.1417     4.4584     0.1282 C.3     
  34 H34            1.2224    -1.7812    -0.0189 H       
  35 H35            4.5159     1.4849    -0.0329 H       
  36 H36            4.4735     3.9194    -0.0206 H       
  37 H37            2.3423     5.1436     0.0068 H       
  38 H38            0.2188     3.9528     0.0225 H       
  39 H39           -2.4569     0.8761     0.0312 H       
  40 H40           -4.8210     0.7680     0.9441 H       
  41 H41           -4.8386     0.7775    -0.8357 H       
  42 H42           -6.1995    -0.8961     2.1982 H       
  43 H43           -7.1993    -2.0721     1.3118 H       
  44 H44           -5.1317    -3.1340     2.1756 H       
  45 H45           -4.3390    -4.0763     0.0233 H       
  46 H46           -6.1128    -3.9293     0.0418 H       
  47 H47           -5.1742    -3.1110    -2.1025 H       
  48 H48           -3.7522    -1.0796    -2.1058 H       
  49 H49           -2.9605    -2.4122    -1.2308 H       
  50 H50           -7.2241    -2.0587    -1.1865 H       
  51 H51           -6.2420    -0.8732    -2.0799 H       
  52 H52           -2.9357    -2.4256     1.2676 H       
  53 H53           -3.7097    -1.1025     2.1724 H       
  54 H54           -7.1533     1.2655     0.0800 H       
  55 H55          -11.2212    -0.7438     0.1089 H       
  56 H56          -13.1047     0.8782     0.1372 H       
  57 H57          -12.5847     3.3070     0.1458 H       
  58 H58          -10.0535     4.8074     1.1570 H       
  59 H59           -9.1998     4.6255    -0.3942 H       
  60 H60          -10.9383     5.0069    -0.3745 H       
@<TRIPOS>BOND
   1    1    2 ar
   2    1   10 ar
   3    2    3 ar
   4    2   11 1
   5    3    4 ar
   6    3   34 1
   7    4    5 ar
   8    5    6 ar
   9    5   10 ar
  10    6    7 ar
  11    6   35 1
  12    7    8 ar
  13    7   36 1
  14    8    9 ar
  15    8   37 1
  16    9   10 ar
  17    9   38 1
  18   11   12 2
  19   11   13 am
  20   13   14 1
  21   13   39 1
  22   14   15 1
  23   14   21 1
  24   14   23 1
  25   15   16 1
  26   15   40 1
  27   15   41 1
  28   16   17 1
  29   16   22 1
  30   16   24 1
  31   17   18 1
  32   17   42 1
  33   17   43 1
  34   18   19 1
  35   18   23 1
  36   18   44 1
  37   19   20 1
  38   19   45 1
  39   19   46 1
  40   20   21 1
  41   20   22 1
  42   20   47 1
  43   21   48 1
  44   21   49 1
  45   22   50 1
  46   22   51 1
  47   23   52 1
  48   23   53 1
  49   24   25 am
  50   24   54 1
  51   25   26 2
  52   25   27 1
  53   27   28 ar
  54   27   32 ar
  55   28   29 ar
  56   28   55 1
  57   29   30 ar
  58   29   56 1
  59   30   31 ar
  60   30   57 1
  61   31   32 ar
  62   31   33 1
  63   33   58 1
  64   33   59 1
  65   33   60 1

#	End of record

