#	Name: ASD01885873
#	Creating user name:	WinNT
#	Creation time:	15. 06. 2019 19:50

#	Modifying user name:	WinNT
#	Modification time:	15. 06. 2019 19:50

#	Program:	/corina/corina34_cracker 3.40 0067  02.08.2006

@<TRIPOS>MOLECULE
ASD01885873
  58   61    0    0    0
SMALL
NO_CHARGES


@<TRIPOS>ATOM
   1 C1             0.4981     0.6060    -0.5692 C.ar    
   2 C2            -0.6753     1.3991    -0.6384 C.ar    
   3 C3            -0.5492     2.8040    -0.7863 C.ar    
   4 C4             0.7305     3.3375    -0.8568 C.ar    
   5 C5             1.8378     2.4849    -0.7807 C.ar    
   6 N6             1.6988     1.1792    -0.6484 N.ar    
   7 C7             0.3708    -0.7908    -0.4220 C.ar    
   8 C8            -0.8692    -1.3511    -0.3440 C.ar    
   9 C9            -2.0171    -0.5653    -0.4074 C.ar    
  10 C10           -1.9322     0.7866    -0.5605 C.ar    
  11 C11           -1.7443     3.6739    -0.8637 C.ar    
  12 C12           -1.8407     4.8034    -0.0505 C.ar    
  13 C13           -2.9552     5.6122    -0.1244 C.ar    
  14 C14           -2.7749     3.3690    -1.7546 C.ar    
  15 C15            3.2010     3.0617    -0.8632 C.2     
  16 N16            4.2789     2.2550    -0.8031 N.am    
  17 O17            3.3465     4.2619    -0.9851 O.2     
  18 C18           -0.9998    -2.8428    -0.1743 C.3     
  19 C19           -3.9816     5.3042    -1.0063 C.ar    
  20 C20           -3.8873     4.1824    -1.8236 C.ar    
  21 O21           -5.0783     6.1033    -1.0759 O.3     
  22 N22           -0.8930    -3.1839     1.2464 N.pl3   
  23 C23           -1.9249    -3.2652     2.1421 C.2     
  24 C24           -1.3854    -3.6047     3.3283 C.2     
  25 N25           -0.0602    -3.7274     3.1616 N.2     
  26 C26            0.2413    -3.4825     1.9157 C.2     
  27 C27           -5.1070     7.2421    -0.2130 C.3     
  28 F28           -4.8882     3.8859    -2.6812 F       
  29 F29            1.4728    -1.5698    -0.3591 F       
  30 C30           -2.1386    -3.8107     4.6173 C.3     
  31 C31           -3.0705    -5.0159     4.4764 C.3     
  32 C32           -1.1455    -4.0639     5.7533 C.3     
  33 C33           -0.2621    -2.8292     5.9432 C.3     
  34 F34           -2.3291    -6.1351     4.0827 F       
  35 F35           -3.6879    -5.2741     5.7049 F       
  36 F36           -4.0466    -4.7405     3.5127 F       
  37 O37           -2.9098    -2.6438     4.9100 O.3     
  38 H38            0.8706     4.4024    -0.9698 H       
  39 H39           -2.9877    -1.0333    -0.3346 H       
  40 H40           -2.8305     1.3839    -0.6120 H       
  41 H41           -1.0431     5.0440     0.6368 H       
  42 H42           -3.0296     6.4865     0.5052 H       
  43 H43           -2.7014     2.4981    -2.3890 H       
  44 H44            4.1628     1.2969    -0.7058 H       
  45 H45            5.1709     2.6324    -0.8572 H       
  46 H46           -1.9682    -3.1683    -0.5543 H       
  47 H47           -0.2054    -3.3425    -0.7287 H       
  48 H48           -2.9707    -3.0900     1.9370 H       
  49 H49            1.2338    -3.5113     1.4909 H       
  50 H50           -6.0347     7.7927    -0.3689 H       
  51 H51           -5.0496     6.9133     0.8246 H       
  52 H52           -4.2587     7.8889    -0.4367 H       
  53 H53           -1.6915    -4.2651     6.6750 H       
  54 H54           -0.5215    -4.9226     5.5058 H       
  55 H55            0.3254    -2.6606     5.0407 H       
  56 H56           -0.8900    -1.9593     6.1357 H       
  57 H57            0.4076    -2.9881     6.7883 H       
  58 H58           -2.3828    -1.8396     5.0128 H       
@<TRIPOS>BOND
   1    1    7 ar
   2    1    6 ar
   3    1    2 ar
   4    2    3 ar
   5    2   10 ar
   6    3   11 1
   7    3    4 ar
   8    4    5 ar
   9    4   38 1
  10    5   15 1
  11    5    6 ar
  12    7   29 1
  13    7    8 ar
  14    8    9 ar
  15    8   18 1
  16    9   10 ar
  17    9   39 1
  18   10   40 1
  19   11   12 ar
  20   11   14 ar
  21   12   13 ar
  22   12   41 1
  23   13   19 ar
  24   13   42 1
  25   14   20 ar
  26   14   43 1
  27   15   16 am
  28   15   17 2
  29   16   44 1
  30   16   45 1
  31   18   22 1
  32   18   46 1
  33   18   47 1
  34   19   20 ar
  35   19   21 1
  36   20   28 1
  37   21   27 1
  38   22   23 1
  39   22   26 1
  40   23   24 2
  41   23   48 1
  42   24   25 1
  43   24   30 1
  44   25   26 2
  45   26   49 1
  46   27   50 1
  47   27   51 1
  48   27   52 1
  49   30   31 1
  50   30   32 1
  51   30   37 1
  52   31   34 1
  53   31   35 1
  54   31   36 1
  55   32   33 1
  56   32   53 1
  57   32   54 1
  58   33   55 1
  59   33   56 1
  60   33   57 1
  61   37   58 1

#	End of record

