#	Name: ASD01813542
#	Creating user name:	WinNT
#	Creation time:	15. 06. 2019 19:30

#	Modifying user name:	WinNT
#	Modification time:	15. 06. 2019 19:30

#	Program:	/corina/corina34_cracker 3.40 0067  02.08.2006

@<TRIPOS>MOLECULE
ASD01813542
  62   66    0    0    0
SMALL
NO_CHARGES


@<TRIPOS>ATOM
   1 C1            -0.0184     1.5028     0.0103 C.3     
   2 C2             0.0021    -0.0041     0.0020 C.ar    
   3 C3             0.0056    -0.6830    -1.2091 C.ar    
   4 C4            -0.0110     0.0932    -2.5007 C.3     
   5 C5             1.3976     0.4773    -2.8741 C.ar    
   6 C6             1.9388     1.6745    -2.4276 C.ar    
   7 C7             3.2361     1.9901    -2.7930 C.ar    
   8 C8             3.9499     1.0999    -3.5920 C.ar    
   9 N9             3.3956    -0.0352    -3.9981 N.ar    
  10 C10            2.1649    -0.3624    -3.6601 C.ar    
  11 C11            5.3410     1.4238    -3.9926 C.2     
  12 C12            6.1785     0.6270    -4.7979 C.2     
  13 C13            7.3593     1.2693    -4.9296 C.2     
  14 N14            7.2833     2.4276    -4.2392 N.pl3   
  15 C15            8.3470     3.4278    -4.1187 C.3     
  16 N16            6.0092     2.5093    -3.6632 N.2     
  17 C17            0.0247    -2.0606    -1.2402 C.ar    
  18 C18            0.0405    -2.7739    -0.0439 C.ar    
  19 C19            0.0616    -4.2440    -0.0149 C.2     
  20 O20            0.0662    -4.8968    -1.0423 O.2     
  21 N21            0.0763    -4.8430     1.1987 N.am    
  22 C22            0.0714    -4.1007     2.3366 C.2     
  23 N23            0.0525    -2.8025     2.3423 N.2     
  24 C24            0.0369    -2.0864     1.1903 C.ar    
  25 C25            0.0227    -0.6904     1.1957 C.ar    
  26 C26            0.0243     0.0617     2.5015 C.3     
  27 C27            0.0971    -6.3052     1.2862 C.3     
  28 H28            0.0978    -6.7293     0.2820 H       
  29 C29            1.3566    -6.7537     2.0301 C.3     
  30 C30            1.3784    -8.2808     2.1214 C.3     
  31 C31            0.1397    -8.7642     2.8783 C.3     
  32 C32           -1.1198    -8.3157     2.1344 C.3     
  33 C33           -1.1416    -6.7886     2.0431 C.3     
  34 H34           -1.1423    -6.3645     3.0472 H       
  35 O35           -2.3179    -6.3697     1.3483 O.3     
  36 H36            1.0042     1.8801     0.0026 H       
  37 H37           -0.5455     1.8639    -0.8728 H       
  38 H38           -0.5286     1.8543     0.9071 H       
  39 H39           -0.4407    -0.5238    -3.2899 H       
  40 H40           -0.6122     0.9938    -2.3756 H       
  41 H41            1.3607     2.3451    -1.8092 H       
  42 H42            3.6884     2.9139    -2.4635 H       
  43 H43            1.7482    -1.2970    -4.0055 H       
  44 H44            5.9221    -0.3280    -5.2322 H       
  45 H45            8.2140     0.9183    -5.4887 H       
  46 H46            8.2574     4.1527    -4.9278 H       
  47 H47            8.2574     3.9397    -3.1606 H       
  48 H48            9.3174     2.9351    -4.1781 H       
  49 H49            0.0270    -2.5833    -2.1853 H       
  50 H50            0.0835    -4.6170     3.2851 H       
  51 H51           -1.0028     0.2287     2.8259 H       
  52 H52            0.5534    -0.5209     3.2557 H       
  53 H53            0.5236     1.0213     2.3675 H       
  54 H54            2.2391    -6.4094     1.4909 H       
  55 H55            1.3559    -6.3297     3.0342 H       
  56 H56            1.3791    -8.7049     1.1173 H       
  57 H57            2.2757    -8.6004     2.6514 H       
  58 H58            0.1552    -9.8521     2.9434 H       
  59 H59            0.1390    -8.3401     3.8824 H       
  60 H60           -1.1191    -8.7397     1.1303 H       
  61 H61           -2.0023    -8.6600     2.6736 H       
  62 H62           -3.1432    -6.6419     1.7724 H       
@<TRIPOS>BOND
   1    1    2 1
   2    1   36 1
   3    1   37 1
   4    1   38 1
   5    2   25 ar
   6    2    3 ar
   7    3    4 1
   8    3   17 ar
   9    4    5 1
  10    4   39 1
  11    4   40 1
  12    5   10 ar
  13    5    6 ar
  14    6    7 ar
  15    6   41 1
  16    7    8 ar
  17    7   42 1
  18    8    9 ar
  19    8   11 1
  20    9   10 ar
  21   10   43 1
  22   11   16 2
  23   11   12 1
  24   12   13 2
  25   12   44 1
  26   13   14 1
  27   13   45 1
  28   14   15 1
  29   14   16 1
  30   15   46 1
  31   15   47 1
  32   15   48 1
  33   17   18 ar
  34   17   49 1
  35   18   24 ar
  36   18   19 1
  37   19   20 2
  38   19   21 am
  39   21   22 1
  40   21   27 1
  41   22   23 2
  42   22   50 1
  43   23   24 1
  44   24   25 ar
  45   25   26 1
  46   26   51 1
  47   26   52 1
  48   26   53 1
  49   27   28 1
  50   27   33 1
  51   27   29 1
  52   29   30 1
  53   29   54 1
  54   29   55 1
  55   30   31 1
  56   30   56 1
  57   30   57 1
  58   31   32 1
  59   31   58 1
  60   31   59 1
  61   32   33 1
  62   32   60 1
  63   32   61 1
  64   33   34 1
  65   33   35 1
  66   35   62 1

#	End of record

