#	Name: ASD02020001
#	Creating user name:	WinNT
#	Creation time:	15. 06. 2019 20:14

#	Modifying user name:	WinNT
#	Modification time:	15. 06. 2019 20:14

#	Program:	/corina/corina34_cracker 3.40 0067  02.08.2006

@<TRIPOS>MOLECULE
ASD02020001
  69   74    0    0    0
SMALL
NO_CHARGES


@<TRIPOS>ATOM
   1 C1             0.1651     2.0419     1.0268 C.ar    
   2 C2            -0.1075     0.6963     1.2096 C.ar    
   3 C3             0.9339    -0.2183     1.2631 C.ar    
   4 C4             2.2424     0.2172     1.1358 C.ar    
   5 C5             2.5176     1.5687     0.9545 C.ar    
   6 C6             1.4784     2.4798     0.8972 C.ar    
   7 C7             1.7341     3.9514     0.6905 C.3     
   8 O8             3.8153     1.9554     0.8448 O.3     
   9 C9             4.0833     3.2468     0.2968 C.3     
  10 C10            3.1955     4.2711     1.0147 C.3     
  11 C11            5.5340     3.5964     0.5074 C.ar    
  12 C12            6.1377     4.5471    -0.2942 C.ar    
  13 C13            7.4714     4.8701    -0.1015 C.ar    
  14 C14            8.2001     4.2355     0.8998 C.ar    
  15 C15            7.5889     3.2834     1.6998 C.ar    
  16 C16            6.2566     2.9697     1.5057 C.ar    
  17 O17            3.7855     3.2476    -1.1009 O.3     
  18 C18            4.6121     2.3733    -1.8718 C.3     
  19 C19            4.0267     0.9591    -1.8520 C.3     
  20 C20            2.7700     0.9178    -2.6841 C.ar    
  21 O21            3.3173     2.9615    -3.8088 O.3     
  22 C22            4.6578     2.8551    -3.3276 C.3     
  23 C23            5.3301     4.2021    -3.3957 C.ar    
  24 C24            6.6839     4.2845    -3.6630 C.ar    
  25 C25            7.3034     5.5223    -3.7263 C.ar    
  26 C26            6.5600     6.6805    -3.5204 C.ar    
  27 C27            5.2033     6.5908    -3.2529 C.ar    
  28 C28            4.5904     5.3530    -3.1963 C.ar    
  29 C29            1.8872    -0.1414    -2.5083 C.ar    
  30 C30            0.7242    -0.2133    -3.2580 C.ar    
  31 C31            0.4400     0.7752    -4.1879 C.ar    
  32 C32            1.3186     1.8318    -4.3629 C.ar    
  33 C33            2.4854     1.9060    -3.6100 C.ar    
  34 O34            0.6707    -1.5396     1.4406 O.3     
  35 O35           -0.8556     2.9372     0.9684 O.3     
  36 O36            1.4627     4.2947    -0.6698 O.3     
  37 O37            3.5132     5.5876     0.5585 O.3     
  38 O38            8.0669     5.8048    -0.8896 O.3     
  39 O39            9.5094     4.5487     1.0925 O.3     
  40 O40            8.6353     5.6052    -3.9887 O.3     
  41 O41            7.1636     7.8976    -3.5812 O.3     
  42 O42            2.1657    -1.1102    -1.5970 O.3     
  43 O43           -0.6986     0.7073    -4.9267 O.3     
  44 H44           -1.1288     0.3599     1.3105 H       
  45 H45            3.0527    -0.4956     1.1777 H       
  46 H46            1.0824     4.5284     1.3466 H       
  47 H47            3.3559     4.2060     2.0909 H       
  48 H48            5.5701     5.0379    -1.0709 H       
  49 H49            8.1523     2.7892     2.4774 H       
  50 H50            5.7801     2.2307     2.1328 H       
  51 H51            5.6199     2.3597    -1.4568 H       
  52 H52            4.7555     0.2592    -2.2608 H       
  53 H53            3.7914     0.6784    -0.8254 H       
  54 H54            5.2099     2.1375    -3.9346 H       
  55 H55            7.2587     3.3842    -3.8220 H       
  56 H56            4.6241     7.4880    -3.0924 H       
  57 H57            3.5320     5.2846    -2.9921 H       
  58 H58            0.0407    -1.0377    -3.1186 H       
  59 H59            1.0961     2.6017    -5.0870 H       
  60 H60            0.5449    -2.0298     0.6166 H       
  61 H61           -1.1050     3.3059     1.8269 H       
  62 H62            0.5520     4.1217    -0.9449 H       
  63 H63            2.9751     6.2835     0.9601 H       
  64 H64            8.0037     6.7067    -0.5464 H       
  65 H65            9.6529     5.2708     1.7196 H       
  66 H66            8.8473     5.6715    -4.9299 H       
  67 H67            7.1650     8.2923    -4.4639 H       
  68 H68            1.8176    -0.9304    -0.7129 H       
  69 H69           -1.4578     1.1474    -4.5205 H       
@<TRIPOS>BOND
   1    1    2 ar
   2    1    6 ar
   3    1   35 1
   4    2    3 ar
   5    2   44 1
   6    3    4 ar
   7    3   34 1
   8    4    5 ar
   9    4   45 1
  10    5    6 ar
  11    5    8 1
  12    6    7 1
  13    7   10 1
  14    7   36 1
  15    7   46 1
  16    8    9 1
  17    9   10 1
  18    9   11 1
  19    9   17 1
  20   10   37 1
  21   10   47 1
  22   11   12 ar
  23   11   16 ar
  24   12   13 ar
  25   12   48 1
  26   13   14 ar
  27   13   38 1
  28   14   15 ar
  29   14   39 1
  30   15   16 ar
  31   15   49 1
  32   16   50 1
  33   17   18 1
  34   18   19 1
  35   18   22 1
  36   18   51 1
  37   19   20 1
  38   19   52 1
  39   19   53 1
  40   20   29 ar
  41   20   33 ar
  42   21   22 1
  43   21   33 1
  44   22   23 1
  45   22   54 1
  46   23   24 ar
  47   23   28 ar
  48   24   25 ar
  49   24   55 1
  50   25   26 ar
  51   25   40 1
  52   26   27 ar
  53   26   41 1
  54   27   28 ar
  55   27   56 1
  56   28   57 1
  57   29   30 ar
  58   29   42 1
  59   30   31 ar
  60   30   58 1
  61   31   32 ar
  62   31   43 1
  63   32   33 ar
  64   32   59 1
  65   34   60 1
  66   35   61 1
  67   36   62 1
  68   37   63 1
  69   38   64 1
  70   39   65 1
  71   40   66 1
  72   41   67 1
  73   42   68 1
  74   43   69 1

#	End of record

