#	Name: ASD07930291
#	Creating user name:	WinNT
#	Creation time:	15. 06. 2019 21:12

#	Modifying user name:	WinNT
#	Modification time:	15. 06. 2019 21:12

#	Program:	/corina/corina34_cracker 3.40 0067  02.08.2006

@<TRIPOS>MOLECULE
ASD07930291
  58   62    0    0    0
SMALL
NO_CHARGES


@<TRIPOS>ATOM
   1 C1             0.6437     0.4733    -0.3827 C.2     
   2 C2             0.9637    -0.8566    -0.3649 C.2     
   3 C3             2.3705    -1.2430    -0.2317 C.2     
   4 N4             3.3090    -0.2859    -0.1287 N.am    
   5 C5             2.9617     1.0459    -0.1510 C.2     
   6 C6             1.6616     1.4289    -0.2741 C.2     
   7 C7             4.7281    -0.6386     0.0125 C.3     
   8 C8             5.5485     0.3370    -0.8444 C.3     
   9 N9             5.2998     1.7034    -0.3631 N.am    
  10 C10            4.0336     2.0598    -0.0397 C.2     
  11 C11            6.4005     2.6616    -0.2355 C.3     
  12 O12            3.7832     3.1893     0.3342 O.2     
  13 O13            2.6869    -2.4204    -0.2140 O.2     
  14 N14           -0.0340    -1.8297    -0.4715 N.pl3   
  15 C15           -0.1944    -2.7142    -1.4908 C.2     
  16 N16           -1.2338    -3.4603    -1.2336 N.2     
  17 C17           -1.7688    -3.0886    -0.0609 C.2     
  18 C18           -1.0326    -2.0764     0.4354 C.2     
  19 C19           -2.9809    -3.7021     0.5913 C.3     
  20 C20            6.6442     3.3411    -1.5845 C.3     
  21 O21            5.4960     4.1123    -1.9437 O.3     
  22 C22            5.5017     4.6910    -3.1724 C.ar    
  23 C23            6.5395     4.4389    -4.0550 C.ar    
  24 C24            6.5444     5.0288    -5.3049 C.ar    
  25 C25            5.5154     5.8734    -5.6828 C.ar    
  26 C26            4.4749     6.1334    -4.8143 C.ar    
  27 C27            4.4566     5.5396    -3.5538 C.ar    
  28 C28            3.3416     5.8148    -2.6173 C.ar    
  29 C29            3.0293     7.1305    -2.2726 C.ar    
  30 C30            1.9937     7.3874    -1.4033 C.ar    
  31 C31            1.2546     6.3298    -0.8657 C.ar    
  32 C32            1.5684     5.0124    -1.2117 C.ar    
  33 C33            2.6011     4.7583    -2.0854 C.ar    
  34 C34            0.1772     6.5958     0.0393 C.1     
  35 N35           -0.6776     6.8067     0.7572 N.1     
  36 H36           -0.3857     0.7839    -0.4841 H       
  37 H37            1.4125     2.4797    -0.2884 H       
  38 H38            5.0270    -0.5522     1.0571 H       
  39 H39            4.8902    -1.6592    -0.3343 H       
  40 H40            6.6091     0.1034    -0.7514 H       
  41 H41            5.2426     0.2548    -1.8874 H       
  42 H42            6.1423     3.4146     0.5092 H       
  43 H43            7.3042     2.1376     0.0759 H       
  44 H44            0.4327    -2.7869    -2.3671 H       
  45 H45           -1.2005    -1.5542     1.3658 H       
  46 H46           -2.6695    -4.5228     1.2376 H       
  47 H47           -3.4952    -2.9468     1.1855 H       
  48 H48           -3.6547    -4.0805    -0.1773 H       
  49 H49            7.5127     3.9955    -1.5102 H       
  50 H50            6.8250     2.5824    -2.3460 H       
  51 H51            7.3457     3.7810    -3.7659 H       
  52 H52            7.3554     4.8300    -5.9898 H       
  53 H53            5.5268     6.3310    -6.6610 H       
  54 H54            3.6737     6.7934    -5.1127 H       
  55 H55            3.6007     7.9475    -2.6879 H       
  56 H56            1.7525     8.4057    -1.1364 H       
  57 H57            0.9981     4.1944    -0.7970 H       
  58 H58            2.8437     3.7405    -2.3529 H       
@<TRIPOS>BOND
   1    1    2 2
   2    1    6 1
   3    1   36 1
   4    2    3 1
   5    2   14 1
   6    3    4 am
   7    3   13 2
   8    4    5 1
   9    4    7 1
  10    5    6 2
  11    5   10 1
  12    6   37 1
  13    7    8 1
  14    7   38 1
  15    7   39 1
  16    8    9 1
  17    8   40 1
  18    8   41 1
  19    9   10 am
  20    9   11 1
  21   10   12 2
  22   11   20 1
  23   11   42 1
  24   11   43 1
  25   14   15 1
  26   14   18 1
  27   15   16 2
  28   15   44 1
  29   16   17 1
  30   17   18 2
  31   17   19 1
  32   18   45 1
  33   19   46 1
  34   19   47 1
  35   19   48 1
  36   20   21 1
  37   20   49 1
  38   20   50 1
  39   21   22 1
  40   22   23 ar
  41   22   27 ar
  42   23   24 ar
  43   23   51 1
  44   24   25 ar
  45   24   52 1
  46   25   26 ar
  47   25   53 1
  48   26   27 ar
  49   26   54 1
  50   27   28 1
  51   28   29 ar
  52   28   33 ar
  53   29   30 ar
  54   29   55 1
  55   30   31 ar
  56   30   56 1
  57   31   32 ar
  58   31   34 1
  59   32   33 ar
  60   32   57 1
  61   33   58 1
  62   34   35 3

#	End of record

