#	Name: ASD01885448
#	Creating user name:	WinNT
#	Creation time:	15. 06. 2019 19:49

#	Modifying user name:	WinNT
#	Modification time:	15. 06. 2019 19:49

#	Program:	/corina/corina34_cracker 3.40 0067  02.08.2006

@<TRIPOS>MOLECULE
ASD01885448
  36   38    0    0    0
SMALL
NO_CHARGES


@<TRIPOS>ATOM
   1 C1            -0.0169     1.3920     0.0097 C.ar    
   2 C2             0.0021    -0.0041     0.0020 C.ar    
   3 N3            -1.1141    -0.7731     0.0202 N.2     
   4 C4            -2.1908    -0.5678    -0.6467 C.2     
   5 C5            -2.3522     0.6326    -1.5420 C.3     
   6 C6            -2.2799     1.8710    -0.6849 C.2     
   7 N7            -1.1827     2.1468     0.0191 N.am    
   8 C8             1.1873     2.0915     0.0020 C.ar    
   9 C9             2.4013     1.4088    -0.0183 C.ar    
  10 C10            2.4112     0.0104    -0.0314 C.ar    
  11 C11            1.2376    -0.6789    -0.0216 C.ar    
  12 C12           -3.2991    -1.5327    -0.5340 C.ar    
  13 O13           -3.2292     2.6245    -0.6376 O.2     
  14 C14           -4.4919    -1.3453    -1.2456 C.ar    
  15 C15           -5.5086    -2.2731    -1.1138 C.ar    
  16 N16           -5.3725    -3.3238    -0.3333 N.ar    
  17 C17           -4.2622    -3.5458     0.3614 C.ar    
  18 C18           -3.1869    -2.6650     0.2826 C.ar    
  19 C19            3.6729     2.1588    -0.0263 C.2     
  20 O20            3.6617     3.3746    -0.0153 O.2     
  21 N21            4.8461     1.4958    -0.0459 N.am    
  22 C22            6.0132     2.1842    -0.0533 C.1     
  23 C23            7.0244     2.7806    -0.0597 C.1     
  24 C24           -4.1683    -4.7060     1.1956 C.1     
  25 N25           -4.0938    -5.6263     1.8573 N.1     
  26 H26           -1.5520     0.6499    -2.2819 H       
  27 H27           -3.3183     0.5891    -2.0449 H       
  28 H28           -1.1998     2.9346     0.5848 H       
  29 H29            1.1799     3.1714     0.0113 H       
  30 H30            3.3503    -0.5227    -0.0493 H       
  31 H31            1.2543    -1.7587    -0.0323 H       
  32 H32           -4.6155    -0.4865    -1.8887 H       
  33 H33           -6.4296    -2.1330    -1.6601 H       
  34 H34           -2.2849    -2.8474     0.8478 H       
  35 H35            4.8550     0.5259    -0.0547 H       
  36 H36            7.9288     3.3140    -0.0654 H       
@<TRIPOS>BOND
   1    1    2 ar
   2    1    8 ar
   3    1    7 1
   4    2    3 1
   5    2   11 ar
   6    3    4 2
   7    4    5 1
   8    4   12 1
   9    5    6 1
  10    5   26 1
  11    5   27 1
  12    6    7 am
  13    6   13 2
  14    7   28 1
  15    8    9 ar
  16    8   29 1
  17    9   10 ar
  18    9   19 1
  19   10   11 ar
  20   10   30 1
  21   11   31 1
  22   12   14 ar
  23   12   18 ar
  24   14   15 ar
  25   14   32 1
  26   15   16 ar
  27   15   33 1
  28   16   17 ar
  29   17   18 ar
  30   17   24 1
  31   18   34 1
  32   19   20 2
  33   19   21 am
  34   21   22 1
  35   21   35 1
  36   22   23 3
  37   23   36 1
  38   24   25 3

#	End of record

