#	Name: ASD09200006
#	Creating user name:	WinNT
#	Creation time:	15. 06. 2019 21:21

#	Modifying user name:	WinNT
#	Modification time:	15. 06. 2019 21:21

#	Program:	/corina/corina34_cracker 3.40 0067  02.08.2006

@<TRIPOS>MOLECULE
ASD09200006
  69   74    0    0    0
SMALL
NO_CHARGES


@<TRIPOS>ATOM
   1 C1             0.3015     1.7942     0.9652 C.ar    
   2 C2             0.3291     0.4286     1.1585 C.ar    
   3 C3             1.5484    -0.2729     1.1057 C.ar    
   4 C4             2.7349     0.4135     0.8565 C.ar    
   5 C5             2.7050     1.7900     0.6615 C.ar    
   6 N6             1.7521     3.8185     0.4898 N.pl3   
   7 C7             1.4821     2.4887     0.7156 C.ar    
   8 C8             3.7422     2.7960     0.3850 C.2     
   9 C9             3.1033     4.0006     0.2918 C.2     
  10 C10            3.7590     5.2953     0.0220 C.ar    
  11 C11            3.2061     6.1822    -0.9048 C.ar    
  12 C12            3.8239     7.3904    -1.1515 C.ar    
  13 C13            4.9890     7.7246    -0.4838 C.ar    
  14 C14            5.5425     6.8507     0.4352 C.ar    
  15 C15            4.9321     5.6417     0.6966 C.ar    
  16 C16            5.1960     2.5511     0.2366 C.2     
  17 N17            6.1486     3.4676    -0.0152 N.2     
  18 N18            7.2887     2.8754    -0.0734 N.2     
  19 N19            7.1516     1.6119     0.1258 N.pl3   
  20 C20            5.8401     1.3499     0.3339 C.2     
  21 C21            0.7487     4.8855     0.4623 C.3     
  22 C22            1.5698    -1.7304     1.3140 C.2     
  23 C23            8.2333     0.6240     0.1320 C.3     
  24 C24            9.0128     0.7129    -1.1815 C.3     
  25 C25           10.1255    -0.3033    -1.1751 C.2     
  26 N26           10.9491    -0.4075    -2.2369 N.am    
  27 O27           10.2800    -1.0275    -0.2145 O.2     
  28 C28           12.0400    -1.2811    -2.1925 C.ar    
  29 C29           13.0037    -3.3586    -1.4809 C.ar    
  30 C30           11.9294    -2.4959    -1.5264 C.ar    
  31 C31           13.2314    -0.9359    -2.8193 C.ar    
  32 C32           14.3081    -1.7959    -2.7772 C.ar    
  33 C33           14.2013    -3.0123    -2.1048 C.ar    
  34 C34           15.3589    -3.9388    -2.0569 C.ar    
  35 C35           16.5568    -3.5941    -2.6801 C.ar    
  36 C36           17.6307    -4.4596    -2.6319 C.ar    
  37 C37           17.5196    -5.6673    -1.9666 C.ar    
  38 C38           16.3330    -6.0146    -1.3462 C.ar    
  39 C39           15.2544    -5.1544    -1.3835 C.ar    
  40 O40            2.7376    -2.4012     1.2632 O.3     
  41 O41            0.5345    -2.3284     1.5316 O.2     
  42 O42           -0.8255    -0.2421     1.4013 O.3     
  43 H43           -0.6383     2.3251     1.0031 H       
  44 H44            3.6727    -0.1204     0.8154 H       
  45 H45            2.2972     5.9223    -1.4271 H       
  46 H46            3.3976     8.0771    -1.8678 H       
  47 H47            5.4687     8.6719    -0.6812 H       
  48 H48            6.4524     7.1177     0.9522 H       
  49 H49            5.3628     4.9625     1.4174 H       
  50 H50            5.3934     0.3872     0.5341 H       
  51 H51            0.6273     5.2961     1.4647 H       
  52 H52            1.0750     5.6738    -0.2161 H       
  53 H53           -0.2029     4.4807     0.1178 H       
  54 H54            8.9044     0.8252     0.9671 H       
  55 H55            7.8118    -0.3757     0.2374 H       
  56 H56            8.3417     0.5117    -2.0166 H       
  57 H57            9.4343     1.7126    -1.2869 H       
  58 H58           10.7851     0.1236    -3.0318 H       
  59 H59           12.9173    -4.3025    -0.9632 H       
  60 H60           11.0012    -2.7640    -1.0438 H       
  61 H61           13.3137     0.0067    -3.3400 H       
  62 H62           15.2335    -1.5275    -3.2650 H       
  63 H63           16.6445    -2.6516    -3.2001 H       
  64 H64           18.5594    -4.1937    -3.1148 H       
  65 H65           18.3624    -6.3418    -1.9317 H       
  66 H66           16.2518    -6.9589    -0.8285 H       
  67 H67           14.3297    -5.4247    -0.8953 H       
  68 H68            2.7015    -3.3569     1.4062 H       
  69 H69           -1.2700    -0.5615     0.6041 H       
@<TRIPOS>BOND
   1    1    2 ar
   2    1    7 ar
   3    1   43 1
   4    2    3 ar
   5    2   42 1
   6    3    4 ar
   7    3   22 1
   8    4    5 ar
   9    4   44 1
  10    5    8 1
  11    5    7 ar
  12    6    7 1
  13    6    9 1
  14    6   21 1
  15    8    9 2
  16    8   16 1
  17    9   10 1
  18   10   11 ar
  19   10   15 ar
  20   11   12 ar
  21   11   45 1
  22   12   13 ar
  23   12   46 1
  24   13   14 ar
  25   13   47 1
  26   14   15 ar
  27   14   48 1
  28   15   49 1
  29   16   17 1
  30   16   20 2
  31   17   18 2
  32   18   19 1
  33   19   20 1
  34   19   23 1
  35   20   50 1
  36   21   51 1
  37   21   52 1
  38   21   53 1
  39   22   40 1
  40   22   41 2
  41   23   24 1
  42   23   54 1
  43   23   55 1
  44   24   25 1
  45   24   56 1
  46   24   57 1
  47   25   26 am
  48   25   27 2
  49   26   28 1
  50   26   58 1
  51   28   31 ar
  52   28   30 ar
  53   29   30 ar
  54   29   33 ar
  55   29   59 1
  56   30   60 1
  57   31   32 ar
  58   31   61 1
  59   32   33 ar
  60   32   62 1
  61   33   34 1
  62   34   35 ar
  63   34   39 ar
  64   35   36 ar
  65   35   63 1
  66   36   37 ar
  67   36   64 1
  68   37   38 ar
  69   37   65 1
  70   38   39 ar
  71   38   66 1
  72   39   67 1
  73   40   68 1
  74   42   69 1

#	End of record

