#	Name: ASD03240499
#	Creating user name:	WinNT
#	Creation time:	15. 06. 2019 20:35

#	Modifying user name:	WinNT
#	Modification time:	15. 06. 2019 20:35

#	Program:	/corina/corina34_cracker 3.40 0067  02.08.2006

@<TRIPOS>MOLECULE
ASD03240499
  37   39    0    0    0
SMALL
NO_CHARGES


@<TRIPOS>ATOM
   1 C1            -0.0899     1.3992     0.3170 C.ar    
   2 C2            -0.0286     0.0449     0.0426 C.ar    
   3 C3             1.0662     2.1526     0.3479 C.ar    
   4 C4             2.2962     1.5467     0.1020 C.ar    
   5 C5             2.3522     0.1824    -0.1739 C.ar    
   6 C6             1.1901    -0.5618    -0.2018 C.ar    
   7 C7             3.5430     2.3522     0.1334 C.2     
   8 C8             4.8074     1.8898    -0.0877 C.2     
   9 N9             5.6508     2.9349     0.0319 N.pl3   
  10 N10            4.8954     4.0743     0.3343 N.2     
  11 C11            3.6350     3.7339     0.3907 C.2     
  12 C12           -1.2942    -0.7726     0.0103 C.3     
  13 C13           -1.3630    -1.5543    -1.3031 C.3     
  14 C14           -1.2996    -1.7360     1.1691 C.ar    
  15 C15           -2.2104    -1.5757     2.1967 C.ar    
  16 C16           -2.2159    -2.4590     3.2597 C.ar    
  17 C17           -1.3095    -3.5037     3.2954 C.ar    
  18 C18           -0.3982    -3.6636     2.2667 C.ar    
  19 C19           -0.3975    -2.7830     1.2014 C.ar    
  20 Cl20          -1.3153    -4.6132     4.6305 Cl      
  21 N21           -2.6503    -2.2569    -1.3879 N.3     
  22 H22           -1.0445     1.8689     0.5031 H       
  23 H23            1.0173     3.2101     0.5619 H       
  24 H24            3.3033    -0.2922    -0.3653 H       
  25 H25            1.2324    -1.6196    -0.4153 H       
  26 H26            5.0829     0.8710    -0.3170 H       
  27 H27            6.6145     2.9029    -0.0730 H       
  28 H28            2.8085     4.3954     0.6046 H       
  29 H29           -2.1567    -0.1102     0.0845 H       
  30 H30           -1.2698    -0.8644    -2.1418 H       
  31 H31           -0.5502    -2.2797    -1.3372 H       
  32 H32           -2.9176    -0.7600     2.1689 H       
  33 H33           -2.9272    -2.3335     4.0626 H       
  34 H34            0.3095    -4.4789     2.2940 H       
  35 H35            0.3139    -2.9077     0.3984 H       
  36 H36           -2.7203    -2.7810    -2.2473 H       
  37 H37           -2.7892    -2.8550    -0.5872 H       
@<TRIPOS>BOND
   1    1    2 ar
   2    1    3 ar
   3    1   22 1
   4    2   12 1
   5    2    6 ar
   6    3    4 ar
   7    3   23 1
   8    4    5 ar
   9    4    7 1
  10    5    6 ar
  11    5   24 1
  12    6   25 1
  13    7    8 2
  14    7   11 1
  15    8    9 1
  16    8   26 1
  17    9   10 1
  18    9   27 1
  19   10   11 2
  20   11   28 1
  21   12   13 1
  22   12   14 1
  23   12   29 1
  24   13   21 1
  25   13   30 1
  26   13   31 1
  27   14   15 ar
  28   14   19 ar
  29   15   16 ar
  30   15   32 1
  31   16   17 ar
  32   16   33 1
  33   17   18 ar
  34   17   20 1
  35   18   19 ar
  36   18   34 1
  37   19   35 1
  38   21   36 1
  39   21   37 1

#	End of record

