#	Name: ASD01910810
#	Creating user name:	WinNT
#	Creation time:	15. 06. 2019 19:56

#	Modifying user name:	WinNT
#	Modification time:	15. 06. 2019 19:56

#	Program:	/corina/corina34_cracker 3.40 0067  02.08.2006

@<TRIPOS>MOLECULE
ASD01910810
  47   49    0    0    0
SMALL
NO_CHARGES


@<TRIPOS>ATOM
   1 N1            -0.0169     1.3965     0.0097 N.2     
   2 N2             0.0021    -0.0041     0.0020 N.pl3   
   3 C3             1.2284     1.8226     0.0001 C.2     
   4 C4             2.0722     0.6950    -0.0140 C.2     
   5 C5             1.2909    -0.4070    -0.0125 C.2     
   6 C6             1.7727    -1.8348    -0.0243 C.3     
   7 C7             1.6660     3.2408     0.0031 C.ar    
   8 C8             3.0473    -1.9360    -0.8645 C.3     
   9 C9             0.7204     4.2636     0.0177 C.ar    
  10 C10            2.0688    -2.2850     1.4077 C.3     
  11 C11            1.1317     5.5809     0.0209 C.ar    
  12 C12            2.4827     5.8868     0.0092 C.ar    
  13 C13            3.4266     4.8725    -0.0053 C.ar    
  14 C14            3.0241     3.5529    -0.0028 C.ar    
  15 C15           -1.1724    -0.8798     0.0085 C.3     
  16 C16           -1.5883    -1.1729    -1.4100 C.2     
  17 O17           -2.6485    -1.9605    -1.6494 O.3     
  18 O18           -0.9674    -0.6990    -2.3318 O.2     
  19 C19           -2.9915    -2.1996    -3.0399 C.3     
  20 F20            2.8811     7.1777     0.0115 F       
  21 C21            0.1096     6.6883     0.0367 C.3     
  22 C22            3.5365    -3.3856    -0.8765 C.3     
  23 C23            3.8326    -3.8359     0.5554 C.3     
  24 C24            2.5580    -3.7347     1.3957 C.3     
  25 H25            3.1521     0.7089    -0.0249 H       
  26 H26            1.0022    -2.4747    -0.4544 H       
  27 H27            2.8364    -1.6153    -1.8847 H       
  28 H28            3.8178    -1.2961    -0.4344 H       
  29 H29           -0.3331     4.0260     0.0261 H       
  30 H30            2.8392    -1.6451     1.8378 H       
  31 H31            1.1607    -2.2130     2.0063 H       
  32 H32            4.4789     5.1153    -0.0147 H       
  33 H33            3.7605     2.7629    -0.0142 H       
  34 H34           -0.9269    -1.8130     0.5154 H       
  35 H35           -1.9908    -0.3861     0.5325 H       
  36 H36           -3.2156    -1.2507    -3.5272 H       
  37 H37           -2.1517    -2.6776    -3.5442 H       
  38 H38           -3.8646    -2.8500    -3.0921 H       
  39 H39           -0.1270     6.9497     1.0681 H       
  40 H40            0.5123     7.5617    -0.4763 H       
  41 H41           -0.7956     6.3544    -0.4704 H       
  42 H42            2.7661    -4.0256    -1.3066 H       
  43 H43            4.4446    -3.4577    -1.4751 H       
  44 H44            4.1811    -4.8686     0.5469 H       
  45 H45            4.6030    -3.1959     0.9856 H       
  46 H46            2.7689    -4.0554     2.4159 H       
  47 H47            1.7875    -4.3746     0.9656 H       
@<TRIPOS>BOND
   1    1    2 1
   2    1    3 2
   3    2   15 1
   4    2    5 1
   5    3    4 1
   6    3    7 1
   7    4    5 2
   8    4   25 1
   9    5    6 1
  10    6    8 1
  11    6   10 1
  12    6   26 1
  13    7    9 ar
  14    7   14 ar
  15    8   22 1
  16    8   27 1
  17    8   28 1
  18    9   11 ar
  19    9   29 1
  20   10   24 1
  21   10   30 1
  22   10   31 1
  23   11   12 ar
  24   11   21 1
  25   12   13 ar
  26   12   20 1
  27   13   14 ar
  28   13   32 1
  29   14   33 1
  30   15   16 1
  31   15   34 1
  32   15   35 1
  33   16   17 1
  34   16   18 2
  35   17   19 1
  36   19   36 1
  37   19   37 1
  38   19   38 1
  39   21   39 1
  40   21   40 1
  41   21   41 1
  42   22   23 1
  43   22   42 1
  44   22   43 1
  45   23   24 1
  46   23   44 1
  47   23   45 1
  48   24   46 1
  49   24   47 1

#	End of record

