#	Name: ASD03330413
#	Creating user name:	WinNT
#	Creation time:	15. 06. 2019 20:37

#	Modifying user name:	WinNT
#	Modification time:	15. 06. 2019 20:37

#	Program:	/corina/corina34_cracker 3.40 0067  02.08.2006

@<TRIPOS>MOLECULE
ASD03330413
  58   61    0    0    0
SMALL
NO_CHARGES


@<TRIPOS>ATOM
   1 C1            -0.0179     1.4655     0.0101 C.3     
   2 N2             0.0021    -0.0041     0.0020 N.3     
   3 C3             0.4494    -0.5231    -1.3031 C.3     
   4 C4             1.7237     0.1898    -1.6760 C.2     
   5 N5             2.1519     1.3316    -1.0766 N.pl3   
   6 C6             1.4184     2.0045    -0.0007 C.3     
   7 C7             2.6412    -0.1377    -2.6198 C.2     
   8 N8             3.6164     0.7992    -2.5865 N.2     
   9 C9             3.3274     1.6849    -1.6595 C.2     
  10 C10            4.1446     2.8676    -1.3094 C.ar    
  11 C11            5.1552     3.2999    -2.1686 C.ar    
  12 C12            2.5858    -1.3038    -3.5191 C.2     
  13 O13            1.6513    -2.0793    -3.4524 O.2     
  14 C14            3.5154    -2.6701    -5.3097 C.3     
  15 N15            3.5706    -1.5109    -4.4156 N.am    
  16 C16            5.9135     4.4038    -1.8366 C.ar    
  17 C17            5.6734     5.0815    -0.6547 C.ar    
  18 C18            4.6727     4.6578     0.2015 C.ar    
  19 C19            3.9040     3.5585    -0.1215 C.ar    
  20 C20            3.2974    -4.1836    -3.3338 C.3     
  21 C21            4.1052    -3.8903    -4.5996 C.3     
  22 C22            4.0476    -5.1010    -5.5333 C.3     
  23 C23            4.3111    -2.3812    -6.5565 C.2     
  24 C24            5.5604    -3.6065    -4.2217 C.3     
  25 O25            3.9305    -2.6364    -7.8195 O.3     
  26 C26            4.9357    -2.2220    -8.6089 C.2     
  27 N27            5.8677    -1.7429    -7.8350 N.2     
  28 N28            5.4918    -1.8330    -6.6078 N.2     
  29 C29            4.9773    -2.2974   -10.1135 C.3     
  30 C30           -1.3129    -0.5504     0.3632 C.3     
  31 H31           -0.5467     1.8255    -0.8724 H       
  32 H32           -0.5297     1.8160     0.9063 H       
  33 H33            0.6347    -1.5947    -1.2296 H       
  34 H34           -0.3141    -0.3315    -2.0571 H       
  35 H35            1.4064     3.0795    -0.1803 H       
  36 H36            1.8965     1.7963     0.9564 H       
  37 H37            5.3438     2.7714    -3.0914 H       
  38 H38            2.4787    -2.8723    -5.5789 H       
  39 H39            4.3159    -0.8923    -4.4688 H       
  40 H40            6.6963     4.7393    -2.5007 H       
  41 H41            6.2699     5.9449    -0.3992 H       
  42 H42            4.4902     5.1911     1.1228 H       
  43 H43            3.1231     3.2287     0.5477 H       
  44 H44            2.2607    -4.3858    -3.6030 H       
  45 H45            3.7176    -5.0529    -2.8279 H       
  46 H46            3.3384    -3.3211    -2.6686 H       
  47 H47            4.6231    -4.8920    -6.4351 H       
  48 H48            4.4678    -5.9703    -5.0275 H       
  49 H49            3.0109    -5.3031    -5.8026 H       
  50 H50            5.6014    -2.7440    -3.5565 H       
  51 H51            5.9805    -4.4758    -3.7158 H       
  52 H52            6.1359    -3.3975    -5.1235 H       
  53 H53            4.5572    -1.3841   -10.5348 H       
  54 H54            6.0103    -2.4081   -10.4433 H       
  55 H55            4.3945    -3.1546   -10.4505 H       
  56 H56           -2.0700    -0.1513    -0.3117 H       
  57 H57           -1.2897    -1.6371     0.2814 H       
  58 H58           -1.5545    -0.2682     1.3879 H       
@<TRIPOS>BOND
   1    1    2 1
   2    1    6 1
   3    1   31 1
   4    1   32 1
   5    2    3 1
   6    2   30 1
   7    3    4 1
   8    3   33 1
   9    3   34 1
  10    4    5 1
  11    4    7 2
  12    5    6 1
  13    5    9 1
  14    6   35 1
  15    6   36 1
  16    7    8 1
  17    7   12 1
  18    8    9 2
  19    9   10 1
  20   10   11 ar
  21   10   19 ar
  22   11   16 ar
  23   11   37 1
  24   12   13 2
  25   12   15 am
  26   14   15 1
  27   14   21 1
  28   14   23 1
  29   14   38 1
  30   15   39 1
  31   16   17 ar
  32   16   40 1
  33   17   18 ar
  34   17   41 1
  35   18   19 ar
  36   18   42 1
  37   19   43 1
  38   20   21 1
  39   20   44 1
  40   20   45 1
  41   20   46 1
  42   21   24 1
  43   21   22 1
  44   22   47 1
  45   22   48 1
  46   22   49 1
  47   23   25 1
  48   23   28 2
  49   24   50 1
  50   24   51 1
  51   24   52 1
  52   25   26 1
  53   26   27 2
  54   26   29 1
  55   27   28 1
  56   29   53 1
  57   29   54 1
  58   29   55 1
  59   30   56 1
  60   30   57 1
  61   30   58 1

#	End of record

