#	Name: ASD03200004
#	Creating user name:	WinNT
#	Creation time:	15. 06. 2019 20:33

#	Modifying user name:	WinNT
#	Modification time:	15. 06. 2019 20:33

#	Program:	/corina/corina34_cracker 3.40 0067  02.08.2006

@<TRIPOS>MOLECULE
ASD03200004
  50   53    0    0    0
SMALL
NO_CHARGES


@<TRIPOS>ATOM
   1 C1             0.9740    -1.0615    -0.1603 C.3     
   2 N2            -0.0150     0.0115     0.0045 N.3     
   3 C3             0.3241     0.8760     1.1420 C.3     
   4 C4             1.6778     1.5441     0.8909 C.3     
   5 C5             2.7484     0.4646     0.7095 C.3     
   6 C6             2.3472    -0.4512    -0.4502 C.3     
   7 C7            -1.3006    -0.5105     0.1394 C.ar    
   8 C8            -2.0045    -0.3773     1.3337 C.ar    
   9 C9            -3.2751    -0.9080     1.4277 C.ar    
  10 N10           -3.8264    -1.5355     0.4062 N.ar    
  11 C11           -3.1966    -1.6853    -0.7441 C.ar    
  12 C12           -1.9206    -1.1775    -0.9239 C.ar    
  13 N13           -1.2563    -1.3387    -2.1473 N.am    
  14 C14           -1.4413    -2.4600    -2.8720 C.2     
  15 C15           -0.6763    -2.6708    -4.1033 C.2     
  16 O16           -2.2443    -3.2976    -2.5032 O.2     
  17 C17           -0.8919    -3.7426    -4.9407 C.2     
  18 S18            0.2316    -3.6135    -6.2917 S.3     
  19 C19            0.8924    -2.1306    -5.6125 C.2     
  20 N20            0.2830    -1.8375    -4.5091 N.2     
  21 C21            1.9807    -1.3340    -6.2164 C.ar    
  22 C22            2.6390    -1.7967    -7.3591 C.ar    
  23 C23            3.6556    -1.0456    -7.9182 C.ar    
  24 C24            4.0219     0.1610    -7.3498 C.ar    
  25 C25            3.3752     0.6257    -6.2189 C.ar    
  26 C26            2.3530    -0.1113    -5.6510 C.ar    
  27 N27            2.0263     2.3925     2.0384 N.3     
  28 N28           -1.8247    -4.7432    -4.7541 N.pl3   
  29 F29            1.7222     0.3444    -4.5467 F       
  30 F30            2.2829    -2.9752    -7.9154 F       
  31 H31            1.0249    -1.6521     0.7544 H       
  32 H32            0.6790    -1.7030    -0.9907 H       
  33 H33           -0.4430     1.6418     1.2574 H       
  34 H34            0.3779     0.2763     2.0506 H       
  35 H35            1.6206     2.1550    -0.0100 H       
  36 H36            3.7062     0.9352     0.4874 H       
  37 H37            2.8331    -0.1219     1.6243 H       
  38 H38            3.0840    -1.2473    -0.5569 H       
  39 H39            2.3006     0.1283    -1.3722 H       
  40 H40           -1.5617     0.1343     2.1755 H       
  41 H41           -3.8262    -0.8084     2.3512 H       
  42 H42           -3.6835    -2.2056    -1.5556 H       
  43 H43           -0.6634    -0.6433    -2.4726 H       
  44 H44            4.1656    -1.4019    -8.8011 H       
  45 H45            4.8173     0.7433    -7.7911 H       
  46 H46            3.6671     1.5686    -5.7806 H       
  47 H47            2.9518     2.7805     1.9334 H       
  48 H48            1.3414     3.1216     2.1703 H       
  49 H49           -2.4020    -4.7288    -3.9747 H       
  50 H50           -1.9028    -5.4605    -5.4023 H       
@<TRIPOS>BOND
   1    1    2 1
   2    1    6 1
   3    1   31 1
   4    1   32 1
   5    2    3 1
   6    2    7 1
   7    3    4 1
   8    3   33 1
   9    3   34 1
  10    4    5 1
  11    4   27 1
  12    4   35 1
  13    5    6 1
  14    5   36 1
  15    5   37 1
  16    6   38 1
  17    6   39 1
  18    7    8 ar
  19    7   12 ar
  20    8    9 ar
  21    8   40 1
  22    9   10 ar
  23    9   41 1
  24   10   11 ar
  25   11   12 ar
  26   11   42 1
  27   12   13 1
  28   13   14 am
  29   13   43 1
  30   14   15 1
  31   14   16 2
  32   15   17 2
  33   15   20 1
  34   17   18 1
  35   17   28 1
  36   18   19 1
  37   19   20 2
  38   19   21 1
  39   21   22 ar
  40   21   26 ar
  41   22   23 ar
  42   22   30 1
  43   23   24 ar
  44   23   44 1
  45   24   25 ar
  46   24   45 1
  47   25   26 ar
  48   25   46 1
  49   26   29 1
  50   27   47 1
  51   27   48 1
  52   28   49 1
  53   28   50 1

#	End of record

