#	Name: ASD03092140
#	Creating user name:	WinNT
#	Creation time:	15. 06. 2019 20:32

#	Modifying user name:	WinNT
#	Modification time:	15. 06. 2019 20:32

#	Program:	/corina/corina34_cracker 3.40 0067  02.08.2006

@<TRIPOS>MOLECULE
ASD03092140
  42   44    0    0    0
SMALL
NO_CHARGES


@<TRIPOS>ATOM
   1 N1             0.1277     1.3341     0.0466 N.am    
   2 C2            -0.0128    -0.0283    -0.0082 C.2     
   3 C3            -1.3481    -0.2982    -0.0536 C.2     
   4 C4            -2.0352     0.9261    -0.0258 C.2     
   5 N5            -1.1549     1.8969     0.0394 N.2     
   6 N6            -3.4234     1.0839    -0.0566 N.pl3   
   7 C7            -3.9861     2.3551     0.0950 C.ar    
   8 C8            -5.2401     2.6279    -0.4353 C.ar    
   9 C9            -5.7947     3.8859    -0.2835 C.ar    
  10 C10           -5.0985     4.8732     0.3972 C.ar    
  11 C11           -3.2938     3.3447     0.7813 C.ar    
  12 C12            1.0825    -1.0222    -0.0172 C.ar    
  13 C13            1.2918     2.0109     0.1032 C.2     
  14 C14            0.9564    -2.2378     0.6683 C.ar    
  15 C15            1.9990    -3.1381     0.6362 C.ar    
  16 N16            3.1081    -2.8706    -0.0279 N.ar    
  17 C17            3.2721    -1.7350    -0.6903 C.ar    
  18 C18            2.2679    -0.7765    -0.7141 C.ar    
  19 C19           -3.8483     4.6015     0.9259 C.ar    
  20 F20           -7.0147     4.1529    -0.7989 F       
  21 F21           -5.6407     6.1019     0.5441 F       
  22 N22            1.2924     3.3571     0.0387 N.am    
  23 C23            2.5578     4.0928     0.1001 C.3     
  24 O24            2.3408     1.4074     0.2123 O.2     
  25 N25            4.4607    -1.5029    -1.3734 N.pl3   
  26 C26            4.6504    -0.2498    -2.1084 C.3     
  27 H27           -1.7977    -1.2790    -0.1022 H       
  28 H28           -3.9966     0.3117    -0.1831 H       
  29 H29           -5.7817     1.8588    -0.9660 H       
  30 H30           -2.3202     3.1328     1.1978 H       
  31 H31            0.0535    -2.4660     1.2152 H       
  32 H32            1.9076    -4.0767     1.1627 H       
  33 H33            2.4048     0.1483    -1.2550 H       
  34 H34           -3.3076     5.3720     1.4554 H       
  35 H35            0.4550     3.8389    -0.0485 H       
  36 H36            2.3596     5.1626     0.0337 H       
  37 H37            3.0598     3.8742     1.0426 H       
  38 H38            3.1953     3.7892    -0.7302 H       
  39 H39            5.1643    -2.1705    -1.3633 H       
  40 H40            5.6350    -0.2484    -2.5760 H       
  41 H41            3.8830    -0.1597    -2.8771 H       
  42 H42            4.5745     0.5909    -1.4189 H       
@<TRIPOS>BOND
   1    1    2 1
   2    1   13 am
   3    1    5 1
   4    2    3 2
   5    2   12 1
   6    3    4 1
   7    3   27 1
   8    4    5 2
   9    4    6 1
  10    6    7 1
  11    6   28 1
  12    7    8 ar
  13    7   11 ar
  14    8    9 ar
  15    8   29 1
  16    9   10 ar
  17    9   20 1
  18   10   19 ar
  19   10   21 1
  20   11   19 ar
  21   11   30 1
  22   12   14 ar
  23   12   18 ar
  24   13   22 am
  25   13   24 2
  26   14   15 ar
  27   14   31 1
  28   15   16 ar
  29   15   32 1
  30   16   17 ar
  31   17   18 ar
  32   17   25 1
  33   18   33 1
  34   19   34 1
  35   22   23 1
  36   22   35 1
  37   23   36 1
  38   23   37 1
  39   23   38 1
  40   25   26 1
  41   25   39 1
  42   26   40 1
  43   26   41 1
  44   26   42 1

#	End of record

