#	Name: ASD05430043
#	Creating user name:	WinNT
#	Creation time:	15. 06. 2019 20:59

#	Modifying user name:	WinNT
#	Modification time:	15. 06. 2019 20:59

#	Program:	/corina/corina34_cracker 3.40 0067  02.08.2006

@<TRIPOS>MOLECULE
ASD05430043
  70   76    0    0    0
SMALL
NO_CHARGES


@<TRIPOS>ATOM
   1 C1            -0.1137     1.1343    -0.3837 C.ar    
   2 C2            -0.0404    -0.0220     0.3587 C.ar    
   3 C3            -1.1769    -0.5158     0.9962 C.ar    
   4 C4            -2.3603     0.1774     0.8718 C.ar    
   5 C5            -2.4298     1.3426     0.1151 C.ar    
   6 C6            -1.2880     1.8519    -0.5530 C.ar    
   7 C7            -4.8503    -0.1358    -0.2672 C.3     
   8 C8            -4.8607     1.3680    -0.1072 C.2     
   9 C9            -3.7113     2.0588     0.0059 C.2     
  10 C10           -6.1663    -0.5910    -0.9045 C.3     
  11 C11           -6.8748     0.4397    -1.7912 C.3     
  12 N12           -7.1222     1.6464    -1.0017 N.pl3   
  13 C13           -6.1628     2.0565    -0.0791 C.2     
  14 C14           -8.3383     2.4434    -1.1657 C.3     
  15 C15           -8.7653     2.9613     0.2120 C.3     
  16 O16           -7.6772     3.6307     0.8407 O.3     
  17 N17           -6.4225     2.9937     0.7745 N.2     
  18 C18           -8.0629     3.6072    -2.0826 C.ar    
  19 C19           -9.0062     3.9879    -3.0184 C.ar    
  20 C20           -6.2761    -2.0611    -1.3155 C.3     
  21 C21           -7.0468    -1.5474    -0.0978 C.3     
  22 Si22           1.1794     2.1157    -1.3506 Si      
  23 C23            1.6212     1.2788    -2.9553 C.3     
  24 C24            1.8241    -1.0269     1.6386 C.2     
  25 N25            1.1775    -0.7034     0.4734 N.pl3   
  26 C26            2.9526    -1.6740     1.2915 C.2     
  27 N27            2.9993    -1.7467    -0.0471 N.2     
  28 C28            1.9419    -1.1690    -0.5488 C.2     
  29 C29            3.9855    -2.2214     2.2426 C.3     
  30 C30           -8.7544     5.0558    -3.8597 C.ar    
  31 C31           -7.5591     5.7430    -3.7656 C.ar    
  32 C32           -6.6144     5.3624    -2.8289 C.ar    
  33 C33           -6.8693     4.2975    -1.9836 C.ar    
  34 Cl34          -5.1125     6.2249    -2.7104 Cl      
  35 C35           -1.2536     3.0713    -1.4384 C.3     
  36 C36            0.1540     3.6848    -1.6373 C.3     
  37 C37            2.6945     2.4589    -0.3222 C.3     
  38 H38           -1.1306    -1.4254     1.5766 H       
  39 H39           -3.2468    -0.1889     1.3683 H       
  40 H40           -4.0171    -0.4274    -0.9066 H       
  41 H41           -4.7391    -0.6044     0.7107 H       
  42 H42           -3.7290     3.1386     0.0166 H       
  43 H43           -6.2423     0.6843    -2.6445 H       
  44 H44           -7.8228     0.0310    -2.1410 H       
  45 H45           -9.1298     1.8232    -1.5863 H       
  46 H46           -9.5979     3.6550     0.0953 H       
  47 H47           -9.0804     2.1220     0.8320 H       
  48 H48           -9.9401     3.4507    -3.0928 H       
  49 H49           -6.8494    -2.2911    -2.2136 H       
  50 H50           -5.4131    -2.7009    -1.1316 H       
  51 H51           -6.6908    -1.8494     0.8871 H       
  52 H52           -8.1271    -1.4396    -0.1948 H       
  53 H53            0.7471     1.2564    -3.6061 H       
  54 H54            2.4240     1.8308    -3.4440 H       
  55 H55            1.9510     0.2594    -2.7547 H       
  56 H56            1.4938    -0.8017     2.6419 H       
  57 H57            1.7128    -1.0769    -1.6002 H       
  58 H58            3.7309    -3.2487     2.5036 H       
  59 H59            4.9657    -2.1999     1.7663 H       
  60 H60            4.0069    -1.6117     3.1459 H       
  61 H61           -9.4918     5.3528    -4.5907 H       
  62 H62           -7.3622     6.5768    -4.4232 H       
  63 H63           -6.1323     3.9999    -1.2524 H       
  64 H64           -1.6526     2.7997    -2.4157 H       
  65 H65           -1.9035     3.8313    -1.0046 H       
  66 H66            0.3692     4.4474    -0.8888 H       
  67 H67            0.2847     4.0708    -2.6482 H       
  68 H68            3.1427     1.5157    -0.0096 H       
  69 H69            3.4143     3.0249    -0.9134 H       
  70 H70            2.4128     3.0367     0.5581 H       
@<TRIPOS>BOND
   1    1    2 ar
   2    1   22 1
   3    1    6 ar
   4    2    3 ar
   5    2   25 1
   6    3    4 ar
   7    3   38 1
   8    4    5 ar
   9    4   39 1
  10    5    6 ar
  11    5    9 1
  12    6   35 1
  13    7    8 1
  14    7   10 1
  15    7   40 1
  16    7   41 1
  17    8    9 2
  18    8   13 1
  19    9   42 1
  20   10   11 1
  21   10   20 1
  22   10   21 1
  23   11   12 1
  24   11   43 1
  25   11   44 1
  26   12   13 1
  27   12   14 1
  28   13   17 2
  29   14   15 1
  30   14   18 1
  31   14   45 1
  32   15   16 1
  33   15   46 1
  34   15   47 1
  35   16   17 1
  36   18   19 ar
  37   18   33 ar
  38   19   30 ar
  39   19   48 1
  40   20   21 1
  41   20   49 1
  42   20   50 1
  43   21   51 1
  44   21   52 1
  45   22   23 1
  46   22   37 1
  47   22   36 1
  48   23   53 1
  49   23   54 1
  50   23   55 1
  51   24   25 1
  52   24   26 2
  53   24   56 1
  54   25   28 1
  55   26   27 1
  56   26   29 1
  57   27   28 2
  58   28   57 1
  59   29   58 1
  60   29   59 1
  61   29   60 1
  62   30   31 ar
  63   30   61 1
  64   31   32 ar
  65   31   62 1
  66   32   33 ar
  67   32   34 1
  68   33   63 1
  69   35   36 1
  70   35   64 1
  71   35   65 1
  72   36   66 1
  73   36   67 1
  74   37   68 1
  75   37   69 1
  76   37   70 1

#	End of record

