#	Name: ASD02039311
#	Creating user name:	WinNT
#	Creation time:	15. 06. 2019 20:18

#	Modifying user name:	WinNT
#	Modification time:	15. 06. 2019 20:18

#	Program:	/corina/corina34_cracker 3.40 0067  02.08.2006

@<TRIPOS>MOLECULE
ASD02039311
  43   45    0    0    0
SMALL
NO_CHARGES


@<TRIPOS>ATOM
   1 C1            -0.1345     1.5596    -0.1872 C.ar    
   2 C2            -0.1559     0.1782    -0.0590 C.ar    
   3 C3            -1.3626    -0.4920    -0.1418 C.ar    
   4 N4            -2.4881     0.1634    -0.3404 N.ar    
   5 C5            -2.5107     1.4839    -0.4681 C.ar    
   6 C6            -1.3324     2.2231    -0.3899 C.ar    
   7 C7            -3.8018     2.1793    -0.6905 C.ar    
   8 C8             1.1630     2.3213    -0.1015 C.3     
   9 N9             1.8164     2.3220    -1.4127 N.am    
  10 C10            1.4076     3.2893    -2.4343 C.3     
  11 C11            2.7935     1.4329    -1.6792 C.2     
  12 C12            3.1433     0.4029    -0.6857 C.2     
  13 C13            4.1487    -0.5129    -0.7932 C.2     
  14 C14            2.5762     4.2262    -2.7462 C.3     
  15 N15            2.5275     0.1959     0.5064 N.2     
  16 C16            3.1088    -0.7981     1.1135 C.2     
  17 N17            4.1202    -1.2619     0.3341 N.pl3   
  18 O18            3.3866     1.4808    -2.7400 O.2     
  19 C19            0.9972     2.5448    -3.7064 C.3     
  20 C20           -4.9952     1.4538    -0.7665 C.ar    
  21 C21           -3.8451     3.5651    -0.8211 C.ar    
  22 N22           -4.9909     4.1853    -1.0182 N.ar    
  23 C23           -6.1336     3.5280    -1.0996 C.ar    
  24 C24           -6.1731     2.1475    -0.9745 C.ar    
  25 F25           -7.2814     4.2110    -1.3027 F       
  26 H26            0.7613    -0.3684     0.1036 H       
  27 H27           -1.3826    -1.5672    -0.0428 H       
  28 H28           -1.3523     3.2979    -0.4940 H       
  29 H29            0.9622     3.3479     0.2049 H       
  30 H30            1.8163     1.8451     0.6297 H       
  31 H31            0.5632     3.8718    -2.0658 H       
  32 H32            4.8357    -0.6200    -1.6197 H       
  33 H33            3.4480     3.6372    -3.0312 H       
  34 H34            2.3015     4.8890    -3.5668 H       
  35 H35            2.8117     4.8198    -1.8629 H       
  36 H36            2.8336    -1.1888     2.0820 H       
  37 H37            4.7148    -1.9982     0.5469 H       
  38 H38            0.1124     1.9410    -3.5046 H       
  39 H39            0.7737     3.2654    -4.4930 H       
  40 H40            1.8132     1.8974    -4.0277 H       
  41 H41           -4.9967     0.3785    -0.6656 H       
  42 H42           -2.9310     4.1369    -0.7598 H       
  43 H43           -7.1128     1.6197    -1.0430 H       
@<TRIPOS>BOND
   1    1    2 ar
   2    1    8 1
   3    1    6 ar
   4    2    3 ar
   5    2   26 1
   6    3    4 ar
   7    3   27 1
   8    4    5 ar
   9    5    6 ar
  10    5    7 1
  11    6   28 1
  12    7   20 ar
  13    7   21 ar
  14    8    9 1
  15    8   29 1
  16    8   30 1
  17    9   10 1
  18    9   11 am
  19   10   19 1
  20   10   14 1
  21   10   31 1
  22   11   12 1
  23   11   18 2
  24   12   13 2
  25   12   15 1
  26   13   17 1
  27   13   32 1
  28   14   33 1
  29   14   34 1
  30   14   35 1
  31   15   16 2
  32   16   17 1
  33   16   36 1
  34   17   37 1
  35   19   38 1
  36   19   39 1
  37   19   40 1
  38   20   24 ar
  39   20   41 1
  40   21   22 ar
  41   21   42 1
  42   22   23 ar
  43   23   24 ar
  44   23   25 1
  45   24   43 1

#	End of record

