#	Name: ASD01914317
#	Creating user name:	WinNT
#	Creation time:	15. 06. 2019 20:03

#	Modifying user name:	WinNT
#	Modification time:	15. 06. 2019 20:03

#	Program:	/corina/corina34_cracker 3.40 0067  02.08.2006

@<TRIPOS>MOLECULE
ASD01914317
  32   34    0    0    0
SMALL
NO_CHARGES


@<TRIPOS>ATOM
   1 N1            -0.0165     1.3631     0.0095 N.pl3   
   2 C2             0.0021    -0.0041     0.0020 C.2     
   3 C3             1.2815     1.7851    -0.0006 C.2     
   4 N4             2.0647     0.7310    -0.0137 N.2     
   5 C5             1.3084    -0.3820    -0.0125 C.2     
   6 C6             1.7308     3.1940     0.0027 C.ar    
   7 C7             3.0936     3.4944    -0.0087 C.ar    
   8 C8             3.5073     4.8100    -0.0061 C.ar    
   9 C9             2.5724     5.8329     0.0083 C.ar    
  10 C10            1.2178     5.5401     0.0197 C.ar    
  11 C11            0.7934     4.2279     0.0114 C.ar    
  12 C12            1.8118    -1.7778    -0.0248 C.ar    
  13 C13            0.9179    -2.8422    -0.1266 C.ar    
  14 C14            3.1799    -2.0279     0.0596 C.ar    
  15 C15            3.6437    -3.3276     0.0473 C.ar    
  16 C16            2.7514    -4.3827    -0.0492 C.ar    
  17 C17            1.3904    -4.1384    -0.1381 C.ar    
  18 F18            3.2098    -5.6535    -0.0617 F       
  19 C19            5.1232    -3.5994     0.1384 C.3     
  20 F20            2.9829     7.1200     0.0117 F       
  21 H21           -0.8051     1.9279     0.0165 H       
  22 H22           -0.8568    -0.6589     0.0072 H       
  23 H23            3.8230     2.6979    -0.0192 H       
  24 H24            4.5617     5.0435    -0.0149 H       
  25 H25            0.4933     6.3409     0.0309 H       
  26 H26           -0.2624     4.0007     0.0198 H       
  27 H27           -0.1430    -2.6527    -0.1959 H       
  28 H28            3.8764    -1.2058     0.1341 H       
  29 H29            0.6982    -4.9640    -0.2128 H       
  30 H30            5.4104    -3.6994     1.1852 H       
  31 H31            5.3564    -4.5226    -0.3921 H       
  32 H32            5.6729    -2.7729    -0.3118 H       
@<TRIPOS>BOND
   1    1    2 1
   2    1    3 1
   3    1   21 1
   4    2    5 2
   5    2   22 1
   6    3    4 2
   7    3    6 1
   8    4    5 1
   9    5   12 1
  10    6    7 ar
  11    6   11 ar
  12    7    8 ar
  13    7   23 1
  14    8    9 ar
  15    8   24 1
  16    9   10 ar
  17    9   20 1
  18   10   11 ar
  19   10   25 1
  20   11   26 1
  21   12   13 ar
  22   12   14 ar
  23   13   17 ar
  24   13   27 1
  25   14   15 ar
  26   14   28 1
  27   15   16 ar
  28   15   19 1
  29   16   17 ar
  30   16   18 1
  31   17   29 1
  32   19   30 1
  33   19   31 1
  34   19   32 1

#	End of record

