#	Name: ASD02448120
#	Creating user name:	WinNT
#	Creation time:	15. 06. 2019 20:21

#	Modifying user name:	WinNT
#	Modification time:	15. 06. 2019 20:21

#	Program:	/corina/corina34_cracker 3.40 0067  02.08.2006

@<TRIPOS>MOLECULE
ASD02448120
  74   79    0    0    0
SMALL
NO_CHARGES


@<TRIPOS>ATOM
   1 C1            -0.0234     1.3534    -0.0539 C.ar    
   2 C2            -0.0044    -0.0279    -0.0458 C.ar    
   3 C3             1.2069    -0.7075    -0.0373 C.ar    
   4 C4             2.3986     0.0017    -0.0370 C.ar    
   5 C5             2.3768     1.3897    -0.0452 C.ar    
   6 C6             1.1618     2.0636    -0.0536 C.ar    
   7 N7             3.5747     2.1078    -0.0445 N.am    
   8 C8             3.8109     3.4697    -0.5411 C.3     
   9 C9             5.2375     3.8758    -0.3565 C.2     
  10 N10            6.0168     2.9459     0.2135 N.am    
  11 S11            5.0635     1.6179     0.5274 S.o2    
  12 O12            5.6573     4.9617    -0.6961 O.2     
  13 O13            4.9602     1.5004     1.9397 O.2     
  14 O14            5.5082     0.5716    -0.3250 O.2     
  15 N15            1.2249    -2.1094    -0.0286 N.pl3   
  16 C16            1.8566    -2.9190    -0.9345 C.2     
  17 C17            0.6234    -2.9174     0.8838 C.2     
  18 N18            0.8591    -4.1598     0.5669 N.2     
  19 C19            1.6160    -4.1991    -0.5485 C.2     
  20 C20            2.0998    -5.4233    -1.2329 C.ar    
  21 C21            1.7773    -6.6822    -0.7263 C.ar    
  22 C22            2.8732    -5.3195    -2.3871 C.ar    
  23 C23            3.3210    -6.4613    -3.0203 C.ar    
  24 C24            3.0029    -7.7085    -2.5111 C.ar    
  25 C25            2.2304    -7.8182    -1.3675 C.ar    
  26 C26           -0.1840    -2.4529     2.0685 C.3     
  27 C27            0.6966    -2.4093     3.2906 C.ar    
  28 C28            1.4592    -1.2850     3.5507 C.ar    
  29 C29            0.7349    -3.4915     4.1513 C.ar    
  30 C30            1.5393    -3.4568     5.2723 C.ar    
  31 C31            2.3137    -2.3289     5.5363 C.ar    
  32 C32            2.2672    -1.2395     4.6688 C.ar    
  33 C33            3.1800    -2.2856     6.7403 C.ar    
  34 C34            3.9544    -1.1577     7.0043 C.ar    
  35 C35            3.2178    -3.3704     7.6139 C.ar    
  36 C36            4.0254    -3.3247     8.7322 C.ar    
  37 C37            4.7960    -2.2046     8.9867 C.ar    
  38 C38            4.7584    -1.1228     8.1256 C.ar    
  39 C39            5.6751    -2.1602    10.2099 C.3     
  40 C40            7.9866    -2.5596    11.0700 C.3     
  41 C41            7.0571    -2.7190     9.8653 C.3     
  42 Cl42           3.5691    -9.1403    -3.3131 Cl      
  43 Cl43           0.8086    -6.8207     0.7077 Cl      
  44 C44            6.9334    -4.2019     9.5093 C.3     
  45 H45           -0.9667     1.8793    -0.0650 H       
  46 H46           -0.9326    -0.5800    -0.0457 H       
  47 H47            3.3416    -0.5247    -0.0301 H       
  48 H48            1.1438     3.1434    -0.0600 H       
  49 H49            3.5624     3.5110    -1.6016 H       
  50 H50            3.1691     4.1638     0.0013 H       
  51 H51            6.9628     3.0322     0.4099 H       
  52 H52            2.4338    -2.6014    -1.7903 H       
  53 H53            3.1216    -4.3471    -2.7861 H       
  54 H54            3.9205    -6.3814    -3.9151 H       
  55 H55            1.9852    -8.7936    -0.9739 H       
  56 H56           -0.5800    -1.4569     1.8703 H       
  57 H57           -1.0090    -3.1445     2.2396 H       
  58 H58            1.4227    -0.4414     2.8774 H       
  59 H59            0.1341    -4.3651     3.9459 H       
  60 H60            1.5682    -4.3022     5.9438 H       
  61 H61            2.8656    -0.3629     4.8685 H       
  62 H62            3.9257    -0.3124     6.3326 H       
  63 H63            2.6159    -4.2452     7.4166 H       
  64 H64            4.0554    -4.1650     9.4101 H       
  65 H65            5.3624    -0.2508     8.3288 H       
  66 H66            5.7743    -1.1290    10.5488 H       
  67 H67            5.2272    -2.7613    11.0012 H       
  68 H68            7.5762    -3.1043    11.9202 H       
  69 H69            8.9712    -2.9577    10.8245 H       
  70 H70            8.0748    -1.5032    11.3236 H       
  71 H71            7.4676    -2.1743     9.0150 H       
  72 H72            7.9179    -4.6000     9.2638 H       
  73 H73            6.5229    -4.7466    10.3595 H       
  74 H74            6.2712    -4.3155     8.6510 H       
@<TRIPOS>BOND
   1    1    2 ar
   2    1    6 ar
   3    1   45 1
   4    2    3 ar
   5    2   46 1
   6    3    4 ar
   7    3   15 1
   8    4    5 ar
   9    4   47 1
  10    5    6 ar
  11    5    7 1
  12    6   48 1
  13    7    8 1
  14    7   11 am
  15    8    9 1
  16    8   49 1
  17    8   50 1
  18    9   10 am
  19    9   12 2
  20   10   11 am
  21   10   51 1
  22   11   13 2
  23   11   14 2
  24   15   16 1
  25   15   17 1
  26   16   19 2
  27   16   52 1
  28   17   18 2
  29   17   26 1
  30   18   19 1
  31   19   20 1
  32   20   21 ar
  33   20   22 ar
  34   21   43 1
  35   21   25 ar
  36   22   23 ar
  37   22   53 1
  38   23   24 ar
  39   23   54 1
  40   24   25 ar
  41   24   42 1
  42   25   55 1
  43   26   27 1
  44   26   56 1
  45   26   57 1
  46   27   28 ar
  47   27   29 ar
  48   28   32 ar
  49   28   58 1
  50   29   30 ar
  51   29   59 1
  52   30   31 ar
  53   30   60 1
  54   31   32 ar
  55   31   33 1
  56   32   61 1
  57   33   34 ar
  58   33   35 ar
  59   34   38 ar
  60   34   62 1
  61   35   36 ar
  62   35   63 1
  63   36   37 ar
  64   36   64 1
  65   37   39 1
  66   37   38 ar
  67   38   65 1
  68   39   41 1
  69   39   66 1
  70   39   67 1
  71   40   41 1
  72   40   68 1
  73   40   69 1
  74   40   70 1
  75   41   44 1
  76   41   71 1
  77   44   72 1
  78   44   73 1
  79   44   74 1

#	End of record

