#	Name: ASD04590122
#	Creating user name:	WinNT
#	Creation time:	15. 06. 2019 20:50

#	Modifying user name:	WinNT
#	Modification time:	15. 06. 2019 20:50

#	Program:	/corina/corina34_cracker 3.40 0067  02.08.2006

@<TRIPOS>MOLECULE
ASD04590122
  36   38    0    0    0
SMALL
NO_CHARGES


@<TRIPOS>ATOM
   1 N1            -0.0716     1.2693    -0.0449 N.pl3   
   2 N2            -0.0332    -0.0137     0.0019 N.2     
   3 C3             1.1984    -0.4415    -0.1989 C.2     
   4 C4             2.0113     0.7058    -0.3910 C.2     
   5 C5             1.1684     1.7675    -0.2858 C.2     
   6 C6             1.6461    -1.8465    -0.2197 C.2     
   7 N7             0.7572    -2.8399    -0.0209 N.am    
   8 O8             2.8171    -2.1087    -0.4161 O.2     
   9 N9             3.3919     0.7377    -0.6374 N.am    
  10 C10            4.0205     1.9190    -0.7983 C.2     
  11 C11            6.3761     2.0183     0.0076 C.ar    
  12 C12            5.4739     1.9526    -1.0577 C.ar    
  13 C13            1.1616    -4.1739    -0.1375 C.ar    
  14 C14            2.4408    -4.5612     0.2531 C.ar    
  15 C15            2.7947    -5.8939     0.1189 C.ar    
  16 C16            1.8743    -6.7886    -0.3942 C.ar    
  17 N17            0.6701    -6.3899    -0.7552 N.ar    
  18 C18            0.2910    -5.1330    -0.6394 C.ar    
  19 C19            7.7337     2.0489    -0.2430 C.ar    
  20 C20            8.2014     2.0148    -1.5444 C.ar    
  21 C21            7.3146     1.9499    -2.6042 C.ar    
  22 C22            5.9541     1.9185    -2.3697 C.ar    
  23 Cl23           5.7913     2.0683     1.6414 Cl      
  24 Cl24           4.8432     1.8364    -3.7012 Cl      
  25 O25            3.3910     2.9570    -0.7299 O.2     
  26 H26           -0.8719     1.8050     0.0711 H       
  27 H27            1.4347     2.8101    -0.3771 H       
  28 H28           -0.1629    -2.6299     0.2030 H       
  29 H29            3.8941    -0.0903    -0.6920 H       
  30 H30            3.1400    -3.8404     0.6507 H       
  31 H31            3.7786    -6.2299     0.4114 H       
  32 H32            2.1453    -7.8285    -0.5013 H       
  33 H33           -0.7035    -4.8442    -0.9457 H       
  34 H34            8.4322     2.1000     0.5792 H       
  35 H35            9.2643     2.0391    -1.7341 H       
  36 H36            7.6873     1.9240    -3.6175 H       
@<TRIPOS>BOND
   1    1    2 1
   2    1    5 1
   3    1   26 1
   4    2    3 2
   5    3    4 1
   6    3    6 1
   7    4    5 2
   8    4    9 1
   9    5   27 1
  10    6    7 am
  11    6    8 2
  12    7   13 1
  13    7   28 1
  14    9   10 am
  15    9   29 1
  16   10   25 2
  17   10   12 1
  18   11   12 ar
  19   11   19 ar
  20   11   23 1
  21   12   22 ar
  22   13   14 ar
  23   13   18 ar
  24   14   15 ar
  25   14   30 1
  26   15   16 ar
  27   15   31 1
  28   16   17 ar
  29   16   32 1
  30   17   18 ar
  31   18   33 1
  32   19   20 ar
  33   19   34 1
  34   20   21 ar
  35   20   35 1
  36   21   22 ar
  37   21   36 1
  38   22   24 1

#	End of record

