#	Name: ASD01816317
#	Creating user name:	WinNT
#	Creation time:	15. 06. 2019 19:35

#	Modifying user name:	WinNT
#	Modification time:	15. 06. 2019 19:35

#	Program:	/corina/corina34_cracker 3.40 0067  02.08.2006

@<TRIPOS>MOLECULE
ASD01816317
  58   63    0    0    0
SMALL
NO_CHARGES


@<TRIPOS>ATOM
   1 C1             0.0465     1.3326    -0.6272 C.ar    
   2 C2             0.0588    -0.0466    -0.4961 C.ar    
   3 C3             1.2385    -0.7192    -0.2528 C.ar    
   4 C4             2.4310    -0.0140    -0.1365 C.ar    
   5 C5             2.4151     1.3845    -0.2699 C.ar    
   6 C6             1.2192     2.0511    -0.5151 C.ar    
   7 N7             3.6180    -0.6827     0.1081 N.pl3   
   8 C8             4.7990    -0.0555     0.2299 C.2     
   9 C9             4.9069     1.3085     0.1187 C.2     
  10 C10            3.6917     2.1131    -0.1430 C.2     
  11 C11            5.9958     2.2774     0.1948 C.2     
  12 N12            5.4354     3.4899    -0.0047 N.am    
  13 N13            4.0585     3.3610    -0.2037 N.2     
  14 O14            7.1754     2.0398     0.3983 O.2     
  15 C15            3.5842    -2.1413     0.2405 C.3     
  16 C16            3.7865    -2.7734    -1.1125 C.ar    
  17 C17            5.0634    -3.0737    -1.5499 C.ar    
  18 C18            5.2520    -3.6527    -2.7896 C.ar    
  19 C19            4.1578    -3.9334    -3.5967 C.ar    
  20 C20            2.8768    -3.6312    -3.1546 C.ar    
  21 C21            2.6943    -3.0571    -1.9117 C.ar    
  22 N22            4.3459    -4.5206    -4.8557 N.pl3   
  23 C23            3.3722    -4.8443    -5.7364 C.2     
  24 C24            3.9655    -5.3860    -6.8253 C.2     
  25 C25            5.3471    -5.3941    -6.6039 C.2     
  26 N26            5.5764    -4.8703    -5.4267 N.2     
  27 C27            6.1347     4.7037    -0.0105 C.ar    
  28 C28            5.4552     5.8958    -0.2264 C.ar    
  29 C29            6.1442     7.0917    -0.2316 C.ar    
  30 C30            7.5170     7.1031    -0.0214 C.ar    
  31 C31            8.1966     5.9112     0.1941 C.ar    
  32 C32            7.5068     4.7158     0.2055 C.ar    
  33 N33            8.2161     8.3165    -0.0271 N.am    
  34 O34           10.0154     7.3570    -0.9014 O.2     
  35 C35            9.4650     8.3724    -0.5309 C.2     
  36 C36           10.1775     9.6963    -0.6337 C.3     
  37 H37           -0.8832     1.8465    -0.8220 H       
  38 H38           -0.8640    -0.6005    -0.5850 H       
  39 H39            1.2355    -1.7945    -0.1522 H       
  40 H40            1.2086     3.1262    -0.6178 H       
  41 H41            5.6873    -0.6394     0.4208 H       
  42 H42            4.3781    -2.4635     0.9144 H       
  43 H43            2.6189    -2.4473     0.6439 H       
  44 H44            5.9142    -2.8551    -0.9216 H       
  45 H45            6.2496    -3.8863    -3.1310 H       
  46 H46            2.0238    -3.8481    -3.7804 H       
  47 H47            1.6981    -2.8217    -1.5673 H       
  48 H48            2.3115    -4.6975    -5.5958 H       
  49 H49            3.4616    -5.7482    -7.7092 H       
  50 H50            6.0956    -5.7646    -7.2886 H       
  51 H51            4.3878     5.8868    -0.3905 H       
  52 H52            5.6159     8.0185    -0.3995 H       
  53 H53            9.2643     5.9201     0.3568 H       
  54 H54            8.0352     3.7890     0.3734 H       
  55 H55            7.8016     9.1168     0.3314 H       
  56 H56            9.5302    10.4876    -0.2555 H       
  57 H57           11.0933     9.6629    -0.0436 H       
  58 H58           10.4242     9.8961    -1.6765 H       
@<TRIPOS>BOND
   1    1    2 ar
   2    1    6 ar
   3    1   37 1
   4    2    3 ar
   5    2   38 1
   6    3    4 ar
   7    3   39 1
   8    4    5 ar
   9    4    7 1
  10    5    6 ar
  11    5   10 1
  12    6   40 1
  13    7    8 1
  14    7   15 1
  15    8    9 2
  16    8   41 1
  17    9   10 1
  18    9   11 1
  19   10   13 2
  20   11   12 am
  21   11   14 2
  22   12   13 1
  23   12   27 1
  24   15   16 1
  25   15   42 1
  26   15   43 1
  27   16   17 ar
  28   16   21 ar
  29   17   18 ar
  30   17   44 1
  31   18   19 ar
  32   18   45 1
  33   19   20 ar
  34   19   22 1
  35   20   21 ar
  36   20   46 1
  37   21   47 1
  38   22   23 1
  39   22   26 1
  40   23   24 2
  41   23   48 1
  42   24   25 1
  43   24   49 1
  44   25   26 2
  45   25   50 1
  46   27   28 ar
  47   27   32 ar
  48   28   29 ar
  49   28   51 1
  50   29   30 ar
  51   29   52 1
  52   30   31 ar
  53   30   33 1
  54   31   32 ar
  55   31   53 1
  56   32   54 1
  57   33   35 am
  58   33   55 1
  59   34   35 2
  60   35   36 1
  61   36   56 1
  62   36   57 1
  63   36   58 1

#	End of record

