#	Name: ASD01320004
#	Creating user name:	WinNT
#	Creation time:	15. 06. 2019 19:15

#	Modifying user name:	WinNT
#	Modification time:	15. 06. 2019 19:15

#	Program:	/corina/corina34_cracker 3.40 0067  02.08.2006

@<TRIPOS>MOLECULE
ASD01320004
  48   50    0    0    0
SMALL
NO_CHARGES


@<TRIPOS>ATOM
   1 C1             0.8495     1.3510     0.5112 C.ar    
   2 C2             0.6086    -0.0094     0.4659 C.ar    
   3 C3             1.6391    -0.8862     0.1659 C.ar    
   4 C4             2.9168    -0.3925    -0.0899 C.ar    
   5 C5             3.1504     0.9743    -0.0430 C.ar    
   6 C6             2.1173     1.8416     0.2574 C.ar    
   7 O7             1.4041    -2.2245     0.1218 O.3     
   8 C8             0.1366    -2.6563     0.3416 C.ar    
   9 C9            -0.8008    -2.5997    -0.6824 C.ar    
  10 C10           -2.0995    -3.0416    -0.4589 C.ar    
  11 C11           -2.4563    -3.5449     0.8079 C.ar    
  12 C12           -1.5040    -3.5950     1.8249 C.ar    
  13 C13           -0.2169    -3.1586     1.5885 C.ar    
  14 N14            3.9621    -1.2734    -0.3931 N.am    
  15 C15            5.2313    -0.9463    -0.0794 C.2     
  16 C16            6.3198    -1.9249    -0.2875 C.ar    
  17 O17            5.4812     0.1533     0.3747 O.2     
  18 C18            7.6316    -1.5883     0.0362 C.ar    
  19 C19            8.6532    -2.5188    -0.1632 C.ar    
  20 C20            8.3517    -3.7812    -0.6862 C.ar    
  21 C21            7.0484    -4.1060    -1.0041 C.ar    
  22 C22            6.0332    -3.1914    -0.8040 C.ar    
  23 C23           10.0432    -2.1727     0.1752 C.2     
  24 C24           11.1442    -3.1788    -0.0409 C.3     
  25 O25           10.3025    -1.0781     0.6279 O.2     
  26 C26           -3.8323    -4.0166     1.0573 C.2     
  27 O27           -4.7751    -3.2823     0.8387 O.2     
  28 O28           -4.0429    -5.2617     1.5274 O.3     
  29 C29           -3.1017    -2.9834    -1.5447 C.2     
  30 O30           -4.2008    -3.4741    -1.3835 O.2     
  31 O31           -2.7954    -2.3861    -2.7126 O.3     
  32 H32            0.0442     2.0330     0.7411 H       
  33 H33           -0.3827    -0.3891     0.6646 H       
  34 H34            4.1395     1.3603    -0.2404 H       
  35 H35            2.3004     2.9053     0.2937 H       
  36 H36           -0.5207    -2.2124    -1.6509 H       
  37 H37           -1.7730    -3.9800     2.7974 H       
  38 H38            0.5178    -3.1995     2.3791 H       
  39 H39            3.7727    -2.1190    -0.8289 H       
  40 H40            7.8577    -0.6121     0.4391 H       
  41 H41            9.1403    -4.5026    -0.8416 H       
  42 H42            6.8210    -5.0816    -1.4078 H       
  43 H43            5.0158    -3.4530    -1.0548 H       
  44 H44           11.5518    -3.0613    -1.0449 H       
  45 H45           11.9337    -3.0167     0.6930 H       
  46 H46           10.7435    -4.1860     0.0731 H       
  47 H47           -4.9614    -5.5256     1.6752 H       
  48 H48           -3.4830    -2.3729    -3.3924 H       
@<TRIPOS>BOND
   1    1    2 ar
   2    1    6 ar
   3    1   32 1
   4    2    3 ar
   5    2   33 1
   6    3    4 ar
   7    3    7 1
   8    4    5 ar
   9    4   14 1
  10    5    6 ar
  11    5   34 1
  12    6   35 1
  13    7    8 1
  14    8    9 ar
  15    8   13 ar
  16    9   10 ar
  17    9   36 1
  18   10   11 ar
  19   10   29 1
  20   11   12 ar
  21   11   26 1
  22   12   13 ar
  23   12   37 1
  24   13   38 1
  25   14   15 am
  26   14   39 1
  27   15   16 1
  28   15   17 2
  29   16   18 ar
  30   16   22 ar
  31   18   19 ar
  32   18   40 1
  33   19   20 ar
  34   19   23 1
  35   20   21 ar
  36   20   41 1
  37   21   22 ar
  38   21   42 1
  39   22   43 1
  40   23   24 1
  41   23   25 2
  42   24   44 1
  43   24   45 1
  44   24   46 1
  45   26   27 2
  46   26   28 1
  47   28   47 1
  48   29   30 2
  49   29   31 1
  50   31   48 1

#	End of record

