#	Name: ASD01152526
#	Creating user name:	WinNT
#	Creation time:	15. 06. 2019 19:06

#	Modifying user name:	WinNT
#	Modification time:	15. 06. 2019 19:06

#	Program:	/corina/corina34_cracker 3.40 0067  02.08.2006

@<TRIPOS>MOLECULE
ASD01152526
  54   56    0    0    0
SMALL
NO_CHARGES


@<TRIPOS>ATOM
   1 C1            -0.6850     1.2133     0.8003 C.2     
   2 N2            -0.4308    -0.0387     0.5277 N.2     
   3 N3            -1.4035    -1.0288     0.6651 N.am    
   4 C4            -2.6994    -0.7443     0.8755 C.2     
   5 C5            -3.1789     0.6880     0.8511 C.3     
   6 C6            -2.0246     1.5691     1.2920 C.2     
   7 C7            -3.6126     1.0650    -0.5668 C.3     
   8 O8            -2.2020     2.5292     2.0131 O.2     
   9 C9            -1.0144    -2.3709     0.5800 C.ar    
  10 O10           -3.4879    -1.6413     1.0856 O.2     
  11 C11           -4.1957     2.4547    -0.5609 C.ar    
  12 C12            0.0707    -2.8272     1.3154 C.ar    
  13 C13           -1.7177    -3.2481    -0.2362 C.ar    
  14 C14           -1.3352    -4.5729    -0.3209 C.ar    
  15 C15           -0.2512    -5.0303     0.4070 C.ar    
  16 C16            0.4534    -4.1575     1.2293 C.ar    
  17 C17           -5.5255     2.6486    -0.2095 C.ar    
  18 C18           -3.4065     3.5366    -0.8996 C.ar    
  19 C19           -3.9393     4.8120    -0.8944 C.ar    
  20 C20           -5.2665     5.0096    -0.5497 C.ar    
  21 C21           -6.0601     3.9306    -0.2051 C.ar    
  22 F22            0.1199    -6.3266     0.3228 F       
  23 F23           -5.7843     6.2574    -0.5447 F       
  24 N24           -6.3237     1.5566     0.1383 N.3     
  25 C25           -6.8760     1.7174     1.4900 C.3     
  26 C26           -7.3941     1.3519    -0.8468 C.3     
  27 O27            0.2702     2.1662     0.6383 O.3     
  28 C28            1.5455     1.7320     0.1618 C.3     
  29 N29            1.5475    -4.6216     1.9702 N.am    
  30 C30            1.9711    -3.9340     3.0492 C.2     
  31 O31            1.3555    -2.9599     3.4276 O.2     
  32 C32            3.2096    -4.3756     3.7856 C.3     
  33 H33           -4.0163     0.8086     1.5384 H       
  34 H34           -2.7486     1.0364    -1.2308 H       
  35 H35           -4.3638     0.3573    -0.9173 H       
  36 H36            0.6162    -2.1475     1.9532 H       
  37 H37           -2.5648    -2.8939    -0.8050 H       
  38 H38           -1.8836    -5.2527    -0.9561 H       
  39 H39           -2.3714     3.3858    -1.1684 H       
  40 H40           -3.3198     5.6561    -1.1592 H       
  41 H41           -7.0949     4.0841     0.0633 H       
  42 H42           -7.4841     2.6212     1.5288 H       
  43 H43           -7.4934     0.8533     1.7354 H       
  44 H44           -6.0603     1.7971     2.2086 H       
  45 H45           -6.9591     1.2578    -1.8418 H       
  46 H46           -7.9434     0.4425    -0.6029 H       
  47 H47           -8.0741     2.2035    -0.8267 H       
  48 H48            2.2132     2.5895     0.0778 H       
  49 H49            1.9678     1.0099     0.8606 H       
  50 H50            1.4284     1.2655    -0.8163 H       
  51 H51            2.0004    -5.4379     1.7068 H       
  52 H52            3.6229    -5.2612     3.3030 H       
  53 H53            3.9481    -3.5741     3.7677 H       
  54 H54            2.9536    -4.6107     4.8186 H       
@<TRIPOS>BOND
   1    1    2 2
   2    1   27 1
   3    1    6 1
   4    2    3 1
   5    3    4 am
   6    3    9 1
   7    4    5 1
   8    4   10 2
   9    5    6 1
  10    5    7 1
  11    5   33 1
  12    6    8 2
  13    7   11 1
  14    7   34 1
  15    7   35 1
  16    9   12 ar
  17    9   13 ar
  18   11   17 ar
  19   11   18 ar
  20   12   16 ar
  21   12   36 1
  22   13   14 ar
  23   13   37 1
  24   14   15 ar
  25   14   38 1
  26   15   16 ar
  27   15   22 1
  28   16   29 1
  29   17   24 1
  30   17   21 ar
  31   18   19 ar
  32   18   39 1
  33   19   20 ar
  34   19   40 1
  35   20   21 ar
  36   20   23 1
  37   21   41 1
  38   24   25 1
  39   24   26 1
  40   25   42 1
  41   25   43 1
  42   25   44 1
  43   26   45 1
  44   26   46 1
  45   26   47 1
  46   27   28 1
  47   28   48 1
  48   28   49 1
  49   28   50 1
  50   29   30 am
  51   29   51 1
  52   30   31 2
  53   30   32 1
  54   32   52 1
  55   32   53 1
  56   32   54 1

#	End of record

