#	Name: ASD04930097
#	Creating user name:	WinNT
#	Creation time:	15. 06. 2019 20:56

#	Modifying user name:	WinNT
#	Modification time:	15. 06. 2019 20:56

#	Program:	/corina/corina34_cracker 3.40 0067  02.08.2006

@<TRIPOS>MOLECULE
ASD04930097
  73   75    0    0    0
SMALL
NO_CHARGES


@<TRIPOS>ATOM
   1 N1             1.2866     1.2308    -1.7110 N.am    
   2 C2             1.3211    -0.1066    -1.5852 C.2     
   3 C3             1.2182    -0.7398    -0.2713 C.2     
   4 C4             1.0828     0.0666     0.8617 C.2     
   5 C5             1.0501     1.5209     0.6793 C.ar    
   6 C6             0.9156     2.3739     1.7814 C.ar    
   7 C7             0.8864     3.7260     1.5944 C.ar    
   8 C8             0.9892     4.2632     0.3170 C.ar    
   9 C9             1.1224     3.4410    -0.7825 C.ar    
  10 C10            1.1540     2.0595    -0.6157 C.ar    
  11 C11            1.2560    -2.2017    -0.1444 C.2     
  12 O12            2.3138    -2.7942    -0.2473 O.2     
  13 N13            0.1190    -2.8877     0.0860 N.am    
  14 N14           -1.0805    -2.2000     0.3119 N.am    
  15 O15            1.4394    -0.8008    -2.5792 O.2     
  16 O16            0.9843    -0.4791     2.0919 O.3     
  17 C17           -2.0095    -2.1278    -0.6618 C.2     
  18 C18           -3.2998    -1.3880    -0.4188 C.3     
  19 C19           -4.1715    -1.4572    -1.6743 C.3     
  20 C20           -5.4815    -0.7062    -1.4276 C.3     
  21 C21           -6.3532    -0.7753    -2.6831 C.3     
  22 C22           -7.6632    -0.0243    -2.4364 C.3     
  23 C23           -8.5350    -0.0934    -3.6918 C.3     
  24 C24           -9.8449     0.6576    -3.4451 C.3     
  25 C25          -10.7167     0.5884    -4.7006 C.3     
  26 C26          -12.0266     1.3394    -4.4539 C.3     
  27 C27          -12.8984     1.2703    -5.7094 C.3     
  28 C28          -14.2083     2.0213    -5.4627 C.3     
  29 O29           -1.8071    -2.6580    -1.7336 O.2     
  30 Cl30           0.9492     5.9854     0.1028 Cl      
  31 C31            0.1374    -4.3525     0.1003 C.3     
  32 C32            0.4161    -4.8378     1.4996 C.ar    
  33 C33           -0.6309    -5.0729     2.3710 C.ar    
  34 C34           -0.3753    -5.5179     3.6545 C.ar    
  35 C35            0.9274    -5.7283     4.0665 C.ar    
  36 C36            1.9744    -5.4941     3.1948 C.ar    
  37 C37            1.7185    -5.0532     1.9099 C.ar    
  38 H38            1.3608     1.6241    -2.5946 H       
  39 H39            0.8348     1.9633     2.7770 H       
  40 H40            0.7822     4.3827     2.4454 H       
  41 H41            1.2012     3.8684    -1.7712 H       
  42 H42           -1.2424    -1.7759     1.1691 H       
  43 H43            0.9400    -1.4451     2.0912 H       
  44 H44           -3.8292    -1.8458     0.4168 H       
  45 H45           -3.0826    -0.3460    -0.1843 H       
  46 H46           -3.6421    -0.9994    -2.5099 H       
  47 H47           -4.3888    -2.4992    -1.9089 H       
  48 H48           -6.0110    -1.1639    -0.5920 H       
  49 H49           -5.2643     0.3359    -1.1930 H       
  50 H50           -5.8238    -0.3175    -3.5187 H       
  51 H51           -6.5705    -1.8174    -2.9176 H       
  52 H52           -8.1927    -0.4821    -1.6008 H       
  53 H53           -7.4460     1.0178    -2.2018 H       
  54 H54           -8.0055     0.3643    -4.5274 H       
  55 H55           -8.7522    -1.1355    -3.9264 H       
  56 H56          -10.3744     0.1998    -2.6095 H       
  57 H57           -9.6277     1.6996    -3.2106 H       
  58 H58          -10.1872     1.0462    -5.5362 H       
  59 H59          -10.9339    -0.4536    -4.9352 H       
  60 H60          -12.5561     0.8817    -3.6183 H       
  61 H61          -11.8094     2.3815    -4.2193 H       
  62 H62          -12.3689     1.7281    -6.5450 H       
  63 H63          -13.1156     0.2282    -5.9439 H       
  64 H64          -14.8294     1.9721    -6.3571 H       
  65 H65          -14.7378     1.5635    -4.6271 H       
  66 H66          -13.9911     3.0634    -5.2281 H       
  67 H67           -0.8299    -4.7313    -0.2297 H       
  68 H68            0.9169    -4.7127    -0.5711 H       
  69 H69           -1.6486    -4.9085     2.0491 H       
  70 H70           -1.1933    -5.7009     4.3356 H       
  71 H71            1.1271    -6.0753     5.0695 H       
  72 H72            2.9921    -5.6581     3.5168 H       
  73 H73            2.5363    -4.8737     1.2277 H       
@<TRIPOS>BOND
   1    1    2 am
   2    1   10 1
   3    1   38 1
   4    2    3 1
   5    2   15 2
   6    3    4 2
   7    3   11 1
   8    4    5 1
   9    4   16 1
  10    5    6 ar
  11    5   10 ar
  12    6    7 ar
  13    6   39 1
  14    7    8 ar
  15    7   40 1
  16    8    9 ar
  17    8   30 1
  18    9   10 ar
  19    9   41 1
  20   11   12 2
  21   11   13 am
  22   13   14 1
  23   13   31 1
  24   14   17 am
  25   14   42 1
  26   16   43 1
  27   17   18 1
  28   17   29 2
  29   18   19 1
  30   18   44 1
  31   18   45 1
  32   19   20 1
  33   19   46 1
  34   19   47 1
  35   20   21 1
  36   20   48 1
  37   20   49 1
  38   21   22 1
  39   21   50 1
  40   21   51 1
  41   22   23 1
  42   22   52 1
  43   22   53 1
  44   23   24 1
  45   23   54 1
  46   23   55 1
  47   24   25 1
  48   24   56 1
  49   24   57 1
  50   25   26 1
  51   25   58 1
  52   25   59 1
  53   26   27 1
  54   26   60 1
  55   26   61 1
  56   27   28 1
  57   27   62 1
  58   27   63 1
  59   28   64 1
  60   28   65 1
  61   28   66 1
  62   31   32 1
  63   31   67 1
  64   31   68 1
  65   32   33 ar
  66   32   37 ar
  67   33   34 ar
  68   33   69 1
  69   34   35 ar
  70   34   70 1
  71   35   36 ar
  72   35   71 1
  73   36   37 ar
  74   36   72 1
  75   37   73 1

#	End of record

