#	Name: ASD07270002
#	Creating user name:	WinNT
#	Creation time:	15. 06. 2019 21:09

#	Modifying user name:	WinNT
#	Modification time:	15. 06. 2019 21:09

#	Program:	/corina/corina34_cracker 3.40 0067  02.08.2006

@<TRIPOS>MOLECULE
ASD07270002
  41   44    0    0    0
SMALL
NO_CHARGES


@<TRIPOS>ATOM
   1 C1            -0.0179     1.4674     0.0101 C.2     
   2 C2             0.0021    -0.0041     0.0020 C.ar    
   3 C3             1.2205    -0.6904    -0.0133 C.ar    
   4 C4             1.2309    -2.0692    -0.0203 C.ar    
   5 C5             0.0396    -2.7739    -0.0127 C.ar    
   6 C6            -1.1702    -2.1019     0.0020 C.ar    
   7 C7            -1.1972    -0.7234     0.0155 C.ar    
   8 O8             1.0238     2.0879     0.0035 O.2     
   9 C9            -1.3331     2.2031     0.0203 C.3     
  10 N10           -1.0849     3.6469     0.0270 N.pl3   
  11 C11           -0.9515     4.4601    -1.0800 C.ar    
  12 C12           -0.7261     5.7586    -0.5883 C.ar    
  13 N13           -0.7321     5.6807     0.7637 N.2     
  14 C14           -0.9481     4.4425     1.1324 C.2     
  15 C15           -0.9973     4.2389    -2.4500 C.ar    
  16 C16           -0.8214     5.2946    -3.3188 C.ar    
  17 C17           -0.5985     6.5760    -2.8338 C.ar    
  18 C18           -0.5504     6.8140    -1.4900 C.ar    
  19 C19           -1.0233     3.9726     2.5338 C.ar    
  20 C20           -0.8572     4.8814     3.5777 C.ar    
  21 C21           -0.9308     4.4265     4.8836 C.ar    
  22 C22           -1.1680     3.0775     5.1024 C.ar    
  23 C23           -1.3233     2.2307     4.0186 C.ar    
  24 N24           -1.2538     2.6895     2.7868 N.ar    
  25 N25            0.0597    -4.2538    -0.0208 N.pl3   
  26 O26            1.1226    -4.8483    -0.0342 O.2     
  27 O27           -0.9867    -4.8771    -0.0142 O.2     
  28 H28            2.1508    -0.1419    -0.0200 H       
  29 H29            2.1709    -2.6007    -0.0322 H       
  30 H30           -2.0956    -2.6588     0.0075 H       
  31 H31           -2.1421    -0.2004     0.0269 H       
  32 H32           -1.9052     1.9369    -0.8684 H       
  33 H33           -1.8968     1.9272     0.9115 H       
  34 H34           -1.1696     3.2440    -2.8332 H       
  35 H35           -0.8568     5.1235    -4.3846 H       
  36 H36           -0.4621     7.3934    -3.5264 H       
  37 H37           -0.3764     7.8150    -1.1238 H       
  38 H38           -0.6735     5.9253     3.3709 H       
  39 H39           -0.8059     5.1068     5.7130 H       
  40 H40           -1.2306     2.6914     6.1091 H       
  41 H41           -1.5081     1.1799     4.1860 H       
@<TRIPOS>BOND
   1    1    2 1
   2    1    8 2
   3    1    9 1
   4    2    3 ar
   5    2    7 ar
   6    3    4 ar
   7    3   28 1
   8    4    5 ar
   9    4   29 1
  10    5    6 ar
  11    5   25 1
  12    6    7 ar
  13    6   30 1
  14    7   31 1
  15    9   10 1
  16    9   32 1
  17    9   33 1
  18   10   11 1
  19   10   14 1
  20   11   12 ar
  21   11   15 ar
  22   12   13 1
  23   12   18 ar
  24   13   14 2
  25   14   19 1
  26   15   16 ar
  27   15   34 1
  28   16   17 ar
  29   16   35 1
  30   17   18 ar
  31   17   36 1
  32   18   37 1
  33   19   20 ar
  34   19   24 ar
  35   20   21 ar
  36   20   38 1
  37   21   22 ar
  38   21   39 1
  39   22   23 ar
  40   22   40 1
  41   23   24 ar
  42   23   41 1
  43   25   26 2
  44   25   27 2

#	End of record

