#	Name: ASD09740026
#	Creating user name:	WinNT
#	Creation time:	15. 06. 2019 21:22

#	Modifying user name:	WinNT
#	Modification time:	15. 06. 2019 21:22

#	Program:	/corina/corina34_cracker 3.40 0067  02.08.2006

@<TRIPOS>MOLECULE
ASD09740026
  41   43    0    0    0
SMALL
NO_CHARGES


@<TRIPOS>ATOM
   1 O1            -0.0144     1.2085     0.0087 O.3     
   2 N2             0.0021    -0.0041     0.0020 N.2     
   3 C3             1.2410     1.6828    -0.0008 C.2     
   4 N4             2.0455     0.6369    -0.0141 N.2     
   5 C5             1.2349    -0.4420    -0.0121 C.2     
   6 C6             1.6630    -1.8633    -0.0238 C.ar    
   7 C7             0.7107    -2.8802    -0.0202 C.ar    
   8 C8             3.0183    -2.1851    -0.0443 C.ar    
   9 C9             3.4108    -3.5083    -0.0556 C.ar    
  10 C10            2.4612    -4.5140    -0.0471 C.ar    
  11 C11            1.1142    -4.2001    -0.0316 C.ar    
  12 C12            1.6452     3.1049     0.0023 C.ar    
  13 C13            2.9976     3.4490    -0.0092 C.ar    
  14 C14            3.3681     4.7781    -0.0062 C.ar    
  15 C15            2.4024     5.7685     0.0081 C.ar    
  16 C16            1.0597     5.4340     0.0200 C.ar    
  17 C17            0.6758     4.1092     0.0109 C.ar    
  18 C18            2.8958    -5.9569    -0.0605 C.3     
  19 N19            3.0567    -6.4327     1.3199 N.3     
  20 C20            1.7658    -6.4630     2.0202 C.3     
  21 C21            3.7032    -7.7515     1.3503 C.3     
  22 C22            0.0146     6.5196     0.0360 C.3     
  23 F23            0.6413     7.7704     0.0360 F       
  24 F24           -0.7955     6.4039    -1.0987 F       
  25 F25           -0.7723     6.3923     1.1857 F       
  26 H26           -0.3413    -2.6362    -0.0081 H       
  27 H27            3.7605    -1.4005    -0.0517 H       
  28 H28            4.4612    -3.7588    -0.0715 H       
  29 H29            0.3769    -4.9892    -0.0250 H       
  30 H30            3.7525     2.6767    -0.0200 H       
  31 H31            4.4144     5.0458    -0.0148 H       
  32 H32            2.6977     6.8074     0.0103 H       
  33 H33           -0.3725     3.8494     0.0202 H       
  34 H34            2.1411    -6.5589    -0.5667 H       
  35 H35            3.8453    -6.0455    -0.5884 H       
  36 H36            1.0841    -7.1334     1.4968 H       
  37 H37            1.9138    -6.8189     3.0398 H       
  38 H38            1.3415    -5.4592     2.0437 H       
  39 H39            4.6874    -7.6844     0.8867 H       
  40 H40            3.8101    -8.0800     2.3841 H       
  41 H41            3.0917    -8.4685     0.8025 H       
@<TRIPOS>BOND
   1    1    2 1
   2    1    3 1
   3    2    5 2
   4    3    4 2
   5    3   12 1
   6    4    5 1
   7    5    6 1
   8    6    7 ar
   9    6    8 ar
  10    7   11 ar
  11    7   26 1
  12    8    9 ar
  13    8   27 1
  14    9   10 ar
  15    9   28 1
  16   10   11 ar
  17   10   18 1
  18   11   29 1
  19   12   13 ar
  20   12   17 ar
  21   13   14 ar
  22   13   30 1
  23   14   15 ar
  24   14   31 1
  25   15   16 ar
  26   15   32 1
  27   16   17 ar
  28   16   22 1
  29   17   33 1
  30   18   19 1
  31   18   34 1
  32   18   35 1
  33   19   20 1
  34   19   21 1
  35   20   36 1
  36   20   37 1
  37   20   38 1
  38   21   39 1
  39   21   40 1
  40   21   41 1
  41   22   23 1
  42   22   24 1
  43   22   25 1

#	End of record

