#	Name: ASD01230787
#	Creating user name:	WinNT
#	Creation time:	15. 06. 2019 19:15

#	Modifying user name:	WinNT
#	Modification time:	15. 06. 2019 19:15

#	Program:	/corina/corina34_cracker 3.40 0067  02.08.2006

@<TRIPOS>MOLECULE
ASD01230787
  33   35    0    0    0
SMALL
NO_CHARGES


@<TRIPOS>ATOM
   1 C1            -0.0166     1.3739     0.0096 C.2     
   2 C2             0.0021    -0.0041     0.0020 C.2     
   3 C3            -1.2143    -0.6999     0.0083 C.2     
   4 C4            -2.3848    -0.0389     0.0110 C.2     
   5 N5            -2.4623     1.3310     0.0018 N.pl3   
   6 C6            -1.3175     2.0759     0.0320 C.2     
   7 C7            -3.8100     1.9041    -0.0477 C.3     
   8 C8            -3.8781     3.1897     0.7818 C.3     
   9 S9            -2.6223     4.3260     0.1134 S.o2    
  10 N10           -1.2621     3.3847     0.0819 N.am    
  11 C11            1.2496     2.1412     0.0016 C.ar    
  12 O12           -2.8878     4.6254    -1.2501 O.2     
  13 O13           -2.3212     5.3519     1.0494 O.2     
  14 C14            2.1024     2.0740    -1.1004 C.ar    
  15 C15            3.2810     2.7914    -1.1018 C.ar    
  16 C16            3.6177     3.5762    -0.0132 C.ar    
  17 C17            2.7765     3.6466     1.0829 C.ar    
  18 C18            1.5921     2.9389     1.0938 C.ar    
  19 F19            4.6807     5.6241    -0.5698 F       
  20 F20            5.3775     4.4934     1.2890 F       
  21 C21            4.9066     4.3571    -0.0213 C.3     
  22 F22            5.8580     3.6788    -0.7907 F       
  23 H23            0.9399    -0.5395    -0.0090 H       
  24 H24           -1.2112    -1.7799     0.0107 H       
  25 H25           -3.3018    -0.6095     0.0204 H       
  26 H26           -4.0669     2.1299    -1.0826 H       
  27 H27           -4.5228     1.1816     0.3497 H       
  28 H28           -4.8682     3.6368     0.6934 H       
  29 H29           -3.6609     2.9693     1.8269 H       
  30 H30            1.8408     1.4615    -1.9506 H       
  31 H31            3.9422     2.7399    -1.9541 H       
  32 H32            3.0452     4.2605     1.9299 H       
  33 H33            0.9362     2.9947     1.9500 H       
@<TRIPOS>BOND
   1    1    2 2
   2    1   11 1
   3    1    6 1
   4    2    3 1
   5    2   23 1
   6    3    4 2
   7    3   24 1
   8    4    5 1
   9    4   25 1
  10    5    6 1
  11    5    7 1
  12    6   10 2
  13    7    8 1
  14    7   26 1
  15    7   27 1
  16    8    9 1
  17    8   28 1
  18    8   29 1
  19    9   10 am
  20    9   12 2
  21    9   13 2
  22   11   14 ar
  23   11   18 ar
  24   14   15 ar
  25   14   30 1
  26   15   16 ar
  27   15   31 1
  28   16   17 ar
  29   16   21 1
  30   17   18 ar
  31   17   32 1
  32   18   33 1
  33   19   21 1
  34   20   21 1
  35   21   22 1

#	End of record

