#	Name: ASD01918119
#	Creating user name:	WinNT
#	Creation time:	15. 06. 2019 20:10

#	Modifying user name:	WinNT
#	Modification time:	15. 06. 2019 20:10

#	Program:	/corina/corina34_cracker 3.40 0067  02.08.2006

@<TRIPOS>MOLECULE
ASD01918119
  45   48    0    0    0
SMALL
NO_CHARGES


@<TRIPOS>ATOM
   1 N1            -0.7097     1.6046     0.2591 N.am    
   2 C2            -0.5249     0.2239     0.1230 C.2     
   3 C3             1.7527     0.4824    -0.8531 C.3     
   4 C4             1.2815     1.9164    -1.1204 C.3     
   5 C5             0.4949     2.4404     0.0862 C.3     
   6 C6            -1.3576    -0.7902     0.4412 C.2     
   7 C7            -0.7099    -1.9887     0.1150 C.2     
   8 N8             0.4692    -1.7001    -0.3814 N.2     
   9 N9             0.6130    -0.3133    -0.3897 N.pl3   
  10 C10           -1.2723    -3.3742     0.3029 C.3     
  11 N11           -1.9034    -3.8201    -0.9464 N.3     
  12 C12           -1.9173     2.1399     0.5267 C.2     
  13 O13           -2.9007     1.4308     0.5620 O.2     
  14 C14           -2.0458     3.6196     0.7819 C.3     
  15 C15           -3.6785    -3.4983    -2.5832 C.3     
  16 C16           -2.6937    -3.1527    -3.7026 C.3     
  17 C17           -1.3008    -3.5655    -3.2981 C.ar    
  18 C18           -0.9761    -3.8649    -1.9863 C.ar    
  19 C19           -3.0799    -3.0065    -1.2594 C.3     
  20 C20           -0.3297    -3.6409    -4.2837 C.ar    
  21 C21            0.9631    -4.0090    -3.9669 C.ar    
  22 C22            1.2938    -4.3052    -2.6574 C.ar    
  23 C23            0.3327    -4.2340    -1.6718 C.ar    
  24 H24            2.1493     0.0512    -1.7723 H       
  25 H25            2.5283     0.4899    -0.0872 H       
  26 H26            2.1473     2.5557    -1.2935 H       
  27 H27            0.6418     1.9288    -2.0029 H       
  28 H28            0.2006     3.4751    -0.0897 H       
  29 H29            1.1141     2.3800     0.9813 H       
  30 H30           -2.3442    -0.6947     0.8699 H       
  31 H31           -0.4677    -4.0599     0.5684 H       
  32 H32           -2.0152    -3.3597     1.1003 H       
  33 H33           -2.2944     4.1287    -0.1493 H       
  34 H34           -2.8344     3.7949     1.5137 H       
  35 H35           -1.1014     4.0054     1.1660 H       
  36 H36           -4.6316    -3.0013    -2.7641 H       
  37 H37           -3.8265    -4.5774    -2.5426 H       
  38 H38           -2.9788    -3.6808    -4.6125 H       
  39 H39           -2.7149    -2.0783    -3.8856 H       
  40 H40           -3.8179    -3.1092    -0.4638 H       
  41 H41           -2.7865    -1.9613    -1.3566 H       
  42 H42           -0.5856    -3.4099    -5.3072 H       
  43 H43            1.7143    -4.0660    -4.7407 H       
  44 H44            2.3046    -4.5914    -2.4068 H       
  45 H45            0.5941    -4.4649    -0.6497 H       
@<TRIPOS>BOND
   1    1    2 1
   2    1    5 1
   3    1   12 am
   4    2    6 2
   5    2    9 1
   6    3    4 1
   7    3    9 1
   8    3   24 1
   9    3   25 1
  10    4    5 1
  11    4   26 1
  12    4   27 1
  13    5   28 1
  14    5   29 1
  15    6    7 1
  16    6   30 1
  17    7    8 2
  18    7   10 1
  19    8    9 1
  20   10   11 1
  21   10   31 1
  22   10   32 1
  23   11   19 1
  24   11   18 1
  25   12   13 2
  26   12   14 1
  27   14   33 1
  28   14   34 1
  29   14   35 1
  30   15   16 1
  31   15   19 1
  32   15   36 1
  33   15   37 1
  34   16   17 1
  35   16   38 1
  36   16   39 1
  37   17   18 ar
  38   17   20 ar
  39   18   23 ar
  40   19   40 1
  41   19   41 1
  42   20   21 ar
  43   20   42 1
  44   21   22 ar
  45   21   43 1
  46   22   23 ar
  47   22   44 1
  48   23   45 1

#	End of record

