#	Name: ASD00170086
#	Creating user name:	WinNT
#	Creation time:	15. 06. 2019 18:31

#	Modifying user name:	WinNT
#	Modification time:	15. 06. 2019 18:31

#	Program:	/corina/corina34_cracker 3.40 0067  02.08.2006

@<TRIPOS>MOLECULE
ASD00170086
  43   46    0    0    0
SMALL
NO_CHARGES


@<TRIPOS>ATOM
   1 C1             0.0020     1.3497    -0.0676 C.2     
   2 C2             0.0217     0.0146     0.2011 C.2     
   3 C3            -1.3120    -0.5536     0.2777 C.2     
   4 C4            -2.3022     0.3755     0.0631 C.2     
   5 S5            -1.6489     1.9222    -0.2221 S.3     
   6 N6            -3.6505     0.0927     0.0814 N.pl3   
   7 C7             1.2018     2.1975    -0.2036 C.ar    
   8 C8             2.2678     1.7819    -1.0055 C.ar    
   9 C9             3.3860     2.5798    -1.1283 C.ar    
  10 C10            3.4539     3.7893    -0.4592 C.ar    
  11 C11            2.4021     4.2071     0.3371 C.ar    
  12 C12            1.2750     3.4225     0.4644 C.ar    
  13 C13           -1.5743    -1.9648     0.5537 C.2     
  14 C14           -1.6342    -2.4465     1.9513 C.ar    
  15 O15           -1.7436    -2.7441    -0.3666 O.2     
  16 C16            1.2627    -0.7685     0.3930 C.ar    
  17 C17            2.0750    -0.5335     1.5031 C.ar    
  18 C18            3.2306    -1.2669     1.6761 C.ar    
  19 C19            3.5851    -2.2334     0.7517 C.ar    
  20 C20            2.7840    -2.4712    -0.3510 C.ar    
  21 C21            1.6226    -1.7490    -0.5324 C.ar    
  22 C22           -1.7731    -3.8093     2.2173 C.ar    
  23 C23           -1.8284    -4.2527     3.5228 C.ar    
  24 C24           -1.7470    -3.3498     4.5674 C.ar    
  25 C25           -1.6096    -1.9957     4.3109 C.ar    
  26 C26           -1.5463    -1.5402     3.0092 C.ar    
  27 Cl27          -1.5094    -0.8700     5.6286 Cl      
  28 H28           -3.9567    -0.7946     0.3262 H       
  29 H29           -4.2936     0.7808    -0.1505 H       
  30 H30            2.2164     0.8379    -1.5276 H       
  31 H31            4.2107     2.2598    -1.7478 H       
  32 H32            4.3322     4.4099    -0.5587 H       
  33 H33            2.4623     5.1519     0.8570 H       
  34 H34            0.4548     3.7500     1.0859 H       
  35 H35            1.7997     0.2212     2.2250 H       
  36 H36            3.8601    -1.0860     2.5348 H       
  37 H37            4.4911    -2.8044     0.8913 H       
  38 H38            3.0662    -3.2271    -1.0691 H       
  39 H39            0.9980    -1.9358    -1.3934 H       
  40 H40           -1.8375    -4.5157     1.4029 H       
  41 H41           -1.9359    -5.3073     3.7294 H       
  42 H42           -1.7912    -3.7020     5.5874 H       
  43 H43           -1.4387    -0.4842     2.8098 H       
@<TRIPOS>BOND
   1    1    2 2
   2    1    7 1
   3    1    5 1
   4    2    3 1
   5    2   16 1
   6    3    4 2
   7    3   13 1
   8    4    5 1
   9    4    6 1
  10    6   28 1
  11    6   29 1
  12    7    8 ar
  13    7   12 ar
  14    8    9 ar
  15    8   30 1
  16    9   10 ar
  17    9   31 1
  18   10   11 ar
  19   10   32 1
  20   11   12 ar
  21   11   33 1
  22   12   34 1
  23   13   14 1
  24   13   15 2
  25   14   22 ar
  26   14   26 ar
  27   16   17 ar
  28   16   21 ar
  29   17   18 ar
  30   17   35 1
  31   18   19 ar
  32   18   36 1
  33   19   20 ar
  34   19   37 1
  35   20   21 ar
  36   20   38 1
  37   21   39 1
  38   22   23 ar
  39   22   40 1
  40   23   24 ar
  41   23   41 1
  42   24   25 ar
  43   24   42 1
  44   25   26 ar
  45   25   27 1
  46   26   43 1

#	End of record

