#	Name: ASD01882992
#	Creating user name:	WinNT
#	Creation time:	15. 06. 2019 19:45

#	Modifying user name:	WinNT
#	Modification time:	15. 06. 2019 19:45

#	Program:	/corina/corina34_cracker 3.40 0067  02.08.2006

@<TRIPOS>MOLECULE
ASD01882992
  45   47    0    0    0
SMALL
NO_CHARGES


@<TRIPOS>ATOM
   1 C1             0.0137     1.1679    -1.5497 C.2     
   2 C2             0.0348    -0.0658    -0.8753 C.2     
   3 C3            -1.1814    -0.6024    -0.4086 C.2     
   4 C4            -2.3379     0.0678    -0.6128 C.2     
   5 N5            -2.3593     1.2590    -1.2643 N.am    
   6 C6            -1.2291     1.8244    -1.7274 C.2     
   7 C7            -3.6382     1.9459    -1.4616 C.3     
   8 C8            -3.9065     2.8745    -0.2755 C.3     
   9 C9             1.2250     1.7519    -2.0419 C.1     
  10 N10            2.1859     2.2152    -2.4323 N.1     
  11 O11           -1.2761     2.8955    -2.3081 O.2     
  12 C12           -5.2421     3.5919    -0.4815 C.3     
  13 C13            1.3074    -0.7855    -0.6609 C.ar    
  14 C14           -5.5105     4.5205     0.7045 C.3     
  15 C15            1.7940    -0.9769     0.6346 C.ar    
  16 C16            2.9804    -1.6487     0.8305 C.ar    
  17 C17            3.6932    -2.1359    -0.2587 C.ar    
  18 C18            3.2126    -1.9471    -1.5491 C.ar    
  19 C19            2.0241    -1.2813    -1.7527 C.ar    
  20 O20            4.8621    -2.7975    -0.0616 O.3     
  21 C21            6.0118    -2.0761    -0.0695 C.ar    
  22 C22            5.9827    -0.6869    -0.1661 C.ar    
  23 C23            7.1732     0.0103    -0.1708 C.ar    
  24 N24            8.3279    -0.6228    -0.0853 N.ar    
  25 C25            8.3966    -1.9373     0.0076 C.ar    
  26 C26            7.2507    -2.7057     0.0247 C.ar    
  27 H27           -1.1900    -1.5487     0.1118 H       
  28 H28           -3.2641    -0.3533    -0.2505 H       
  29 H29           -3.5980     2.5318    -2.3799 H       
  30 H30           -4.4385     1.2097    -1.5350 H       
  31 H31           -3.9466     2.2886     0.6428 H       
  32 H32           -3.1061     3.6107    -0.2021 H       
  33 H33           -5.2020     4.1778    -1.3998 H       
  34 H34           -6.0425     2.8556    -0.5549 H       
  35 H35           -6.4620     5.0316     0.5577 H       
  36 H36           -5.5506     3.9346     1.6228 H       
  37 H37           -4.7101     5.2567     0.7779 H       
  38 H38            1.2408    -0.5983     1.4814 H       
  39 H39            3.3574    -1.7968     1.8316 H       
  40 H40            3.7697    -2.3265    -2.3929 H       
  41 H41            1.6513    -1.1350    -2.7557 H       
  42 H42            5.0410    -0.1627    -0.2367 H       
  43 H43            7.1600     1.0876    -0.2458 H       
  44 H44            9.3616    -2.4174     0.0753 H       
  45 H45            7.3138    -3.7811     0.1009 H       
@<TRIPOS>BOND
   1    1    2 2
   2    1    9 1
   3    1    6 1
   4    2    3 1
   5    2   13 1
   6    3    4 2
   7    3   27 1
   8    4    5 1
   9    4   28 1
  10    5    7 1
  11    5    6 am
  12    6   11 2
  13    7    8 1
  14    7   29 1
  15    7   30 1
  16    8   12 1
  17    8   31 1
  18    8   32 1
  19    9   10 3
  20   12   14 1
  21   12   33 1
  22   12   34 1
  23   13   15 ar
  24   13   19 ar
  25   14   35 1
  26   14   36 1
  27   14   37 1
  28   15   16 ar
  29   15   38 1
  30   16   17 ar
  31   16   39 1
  32   17   18 ar
  33   17   20 1
  34   18   19 ar
  35   18   40 1
  36   19   41 1
  37   20   21 1
  38   21   22 ar
  39   21   26 ar
  40   22   23 ar
  41   22   42 1
  42   23   24 ar
  43   23   43 1
  44   24   25 ar
  45   25   26 ar
  46   25   44 1
  47   26   45 1

#	End of record

