#	Name: ASD04590019
#	Creating user name:	WinNT
#	Creation time:	15. 06. 2019 20:50

#	Modifying user name:	WinNT
#	Modification time:	15. 06. 2019 20:50

#	Program:	/corina/corina34_cracker 3.40 0067  02.08.2006

@<TRIPOS>MOLECULE
ASD04590019
  67   70    0    0    0
SMALL
NO_CHARGES


@<TRIPOS>ATOM
   1 C1             0.0483     1.8158     0.1304 C.3     
   2 C2            -0.0035     0.2847     0.1608 C.3     
   3 C3             0.8194    -0.2049     1.3545 C.3     
   4 C4             2.2377     0.2942     1.2307 C.2     
   5 C5             2.5120     1.4648     0.6170 C.2     
   6 C6             1.4857     2.2557     0.0711 C.2     
   7 N7             3.2462    -0.4663     1.7591 N.pl3   
   8 C8             4.4634     0.0890     2.0394 C.2     
   9 C9             4.8328     1.2462     1.4637 C.2     
  10 C10            3.9324     1.9566     0.4958 C.3     
  11 O11            1.7648     3.3131    -0.4583 O.2     
  12 C12            4.4230     1.7110    -0.9078 C.ar    
  13 C13            4.7993     2.7758    -1.7046 C.ar    
  14 C14            5.2493     2.5505    -2.9923 C.ar    
  15 C15            5.3233     1.2604    -3.4827 C.ar    
  16 C16            4.9477     0.1952    -2.6854 C.ar    
  17 C17            4.5020     0.4201    -1.3965 C.ar    
  18 C18            5.8129     1.0149    -4.8866 C.3     
  19 C19            5.3972    -0.6004     3.0006 C.3     
  20 C20            6.0938     1.8053     1.7768 C.2     
  21 O21            6.4775     2.9665     1.2062 O.3     
  22 O22            6.8327     1.2392     2.5605 O.2     
  23 C23            7.7637     3.4732     1.5681 C.3     
  24 C24            8.0215     4.7865     0.8267 C.3     
  25 C25           -1.4322    -0.1709     0.3096 C.ar    
  26 C26           -2.1652     0.2086     1.4187 C.ar    
  27 C27           -2.0088    -0.9627    -0.6659 C.ar    
  28 C28           -3.3224    -1.3824    -0.5306 C.ar    
  29 C29           -4.0584    -1.0052     0.5885 C.ar    
  30 C30           -3.4762    -0.2067     1.5599 C.ar    
  31 N31            5.6514     3.6909    -3.8459 N.pl3   
  32 O32            6.5971     3.5795    -4.6053 O.2     
  33 O33            5.0365     4.7408    -3.7890 O.2     
  34 O34           -3.8913    -2.1610    -1.4895 O.3     
  35 C35           -3.0763    -2.5089    -2.6106 C.3     
  36 O36           -5.3479    -1.4146     0.7259 O.3     
  37 C37           -6.0421    -0.9890     1.9002 C.3     
  38 H38           -0.4817     2.1813    -0.7492 H       
  39 H39           -0.4184     2.2145     1.0311 H       
  40 H40            0.4170    -0.1144    -0.7623 H       
  41 H41            0.3806     0.1739     2.2776 H       
  42 H42            0.8186    -1.2948     1.3733 H       
  43 H43            3.0954    -1.4079     1.9365 H       
  44 H44            3.9594     3.0267     0.7012 H       
  45 H45            4.7415     3.7839    -1.3214 H       
  46 H46            5.0052    -0.8129    -3.0687 H       
  47 H47            4.2086    -0.4120    -0.7737 H       
  48 H48            6.9022     0.9761    -4.8900 H       
  49 H49            5.4144     0.0676    -5.2499 H       
  50 H50            5.4761     1.8234    -5.5355 H       
  51 H51            4.9324    -1.5166     3.3646 H       
  52 H52            6.3292    -0.8436     2.4904 H       
  53 H53            5.6054     0.0605     3.8420 H       
  54 H54            7.7949     3.6507     2.6431 H       
  55 H55            8.5298     2.7467     1.2974 H       
  56 H56            7.9902     4.6090    -0.2483 H       
  57 H57            7.2553     5.5131     1.0974 H       
  58 H58            9.0025     5.1731     1.1027 H       
  59 H59           -1.7124     0.8306     2.1767 H       
  60 H60           -1.4356    -1.2538    -1.5337 H       
  61 H61           -4.0452     0.0875     2.4294 H       
  62 H62           -3.6501    -3.1302    -3.2982 H       
  63 H63           -2.7557    -1.6014    -3.1223 H       
  64 H64           -2.2013    -3.0604    -2.2666 H       
  65 H65           -5.5218    -1.3586     2.7838 H       
  66 H66           -6.0761     0.1001     1.9275 H       
  67 H67           -7.0579    -1.3840     1.8850 H       
@<TRIPOS>BOND
   1    1    2 1
   2    1    6 1
   3    1   38 1
   4    1   39 1
   5    2    3 1
   6    2   25 1
   7    2   40 1
   8    3    4 1
   9    3   41 1
  10    3   42 1
  11    4    5 2
  12    4    7 1
  13    5    6 1
  14    5   10 1
  15    6   11 2
  16    7    8 1
  17    7   43 1
  18    8    9 2
  19    8   19 1
  20    9   10 1
  21    9   20 1
  22   10   12 1
  23   10   44 1
  24   12   13 ar
  25   12   17 ar
  26   13   14 ar
  27   13   45 1
  28   14   15 ar
  29   14   31 1
  30   15   16 ar
  31   15   18 1
  32   16   17 ar
  33   16   46 1
  34   17   47 1
  35   18   48 1
  36   18   49 1
  37   18   50 1
  38   19   51 1
  39   19   52 1
  40   19   53 1
  41   20   21 1
  42   20   22 2
  43   21   23 1
  44   23   24 1
  45   23   54 1
  46   23   55 1
  47   24   56 1
  48   24   57 1
  49   24   58 1
  50   25   26 ar
  51   25   27 ar
  52   26   30 ar
  53   26   59 1
  54   27   28 ar
  55   27   60 1
  56   28   29 ar
  57   28   34 1
  58   29   30 ar
  59   29   36 1
  60   30   61 1
  61   31   32 2
  62   31   33 2
  63   34   35 1
  64   35   62 1
  65   35   63 1
  66   35   64 1
  67   36   37 1
  68   37   65 1
  69   37   66 1
  70   37   67 1

#	End of record

