#	Name: ASD02560329
#	Creating user name:	WinNT
#	Creation time:	15. 06. 2019 20:25

#	Modifying user name:	WinNT
#	Modification time:	15. 06. 2019 20:25

#	Program:	/corina/corina34_cracker 3.40 0067  02.08.2006

@<TRIPOS>MOLECULE
ASD02560329
  33   35    0    0    0
SMALL
NO_CHARGES


@<TRIPOS>ATOM
   1 C1            -0.0162     1.3432     0.0094 C.2     
   2 O2             0.0021    -0.0041     0.0020 O.3     
   3 C3            -1.2846    -0.3996     0.0127 C.2     
   4 N4            -2.0240     0.6830     0.0258 N.2     
   5 N5            -1.2613     1.7192     0.0290 N.2     
   6 N6            -1.7413    -1.7043     0.0098 N.pl3   
   7 C7             1.1875     2.2500     0.0028 C.3     
   8 C8             1.6023     2.5446     1.4213 C.ar    
   9 C9             2.5134     1.7231     2.0606 C.ar    
  10 C10            2.8942     1.9944     3.3628 C.ar    
  11 C11            2.3644     3.0859     4.0249 C.ar    
  12 C12            1.4537     3.9068     3.3868 C.ar    
  13 C13            1.0764     3.6399     2.0827 C.ar    
  14 C14           -3.1242    -1.9659     0.0222 C.2     
  15 C15           -3.7094    -3.1857     0.0211 C.2     
  16 Cl16           3.1784     0.3518     1.2294 Cl      
  17 Cl17          -0.0670     4.6713     1.2812 Cl      
  18 N18           -5.0663    -3.0058     0.0357 N.pl3   
  19 C19           -5.3307    -1.6688     0.0460 C.2     
  20 C20           -4.1578    -1.0036     0.0442 C.2     
  21 C21           -6.0688    -4.0741     0.0392 C.3     
  22 H22           -1.1087    -2.4396    -0.0007 H       
  23 H23            2.0082     1.7605    -0.5215 H       
  24 H24            0.9374     3.1822    -0.5037 H       
  25 H25            3.6052     1.3529     3.8622 H       
  26 H26            2.6620     3.2973     5.0414 H       
  27 H27            1.0396     4.7592     3.9049 H       
  28 H28           -3.1956    -4.1356     0.0100 H       
  29 H29           -6.3125    -1.2188     0.0581 H       
  30 H30           -4.0318     0.0690     0.0512 H       
  31 H31           -6.3072    -4.3453     1.0677 H       
  32 H32           -6.9715    -3.7269    -0.4635 H       
  33 H33           -5.6736    -4.9449    -0.4839 H       
@<TRIPOS>BOND
   1    1    2 1
   2    1    7 1
   3    1    5 2
   4    2    3 1
   5    3    4 2
   6    3    6 1
   7    4    5 1
   8    6   14 1
   9    6   22 1
  10    7    8 1
  11    7   23 1
  12    7   24 1
  13    8    9 ar
  14    8   13 ar
  15    9   10 ar
  16    9   16 1
  17   10   11 ar
  18   10   25 1
  19   11   12 ar
  20   11   26 1
  21   12   13 ar
  22   12   27 1
  23   13   17 1
  24   14   15 2
  25   14   20 1
  26   15   18 1
  27   15   28 1
  28   18   19 1
  29   18   21 1
  30   19   20 2
  31   19   29 1
  32   20   30 1
  33   21   31 1
  34   21   32 1
  35   21   33 1

#	End of record

