#	Name: ASD03240331
#	Creating user name:	WinNT
#	Creation time:	15. 06. 2019 20:34

#	Modifying user name:	WinNT
#	Modification time:	15. 06. 2019 20:34

#	Program:	/corina/corina34_cracker 3.40 0067  02.08.2006

@<TRIPOS>MOLECULE
ASD03240331
  89   88    0    0    0
SMALL
NO_CHARGES


@<TRIPOS>ATOM
   1 P1            -2.4033     3.4251    -1.4043 P.3     
   2 O2            -2.5044     1.8830    -0.9529 O.3     
   3 O3            -0.9829     4.0272    -0.9436 O.3     
   4 O4            -2.5293     3.5212    -2.9412 O.co2   
   5 O5            -3.5432     4.2312    -0.7428 O.co2   
   6 N6            -3.2211    -0.2593     0.8605 N.4     
   7 C7             4.7359    10.5179    -0.0049 C.3     
   8 C8             4.3592     9.0452     0.1687 C.3     
   9 C9             6.1482    10.7503     0.5356 C.3     
  10 C10            2.9469     8.8128    -0.3719 C.3     
  11 C11            6.5248    12.2230     0.3620 C.3     
  12 C12            2.5702     7.3401    -0.1983 C.3     
  13 C13           -3.4411    -0.3151    -0.5908 C.3     
  14 C14            7.9372    12.4553     0.9026 C.3     
  15 C15            1.1579     7.1077    -0.7388 C.3     
  16 C16            8.3138    13.9280     0.7290 C.3     
  17 C17           -4.3649     0.4008     1.5040 C.3     
  18 C18           -3.0829    -1.6234     1.3877 C.3     
  19 C19           -1.9957     0.5006     1.1412 C.3     
  20 C20            0.7812     5.6350    -0.5652 C.3     
  21 C21           -3.6859     1.0978    -1.1243 C.3     
  22 C22            9.7262    14.1604     1.2695 C.3     
  23 C23           12.4811    15.2578     5.2415 C.3     
  24 C24           13.8982    15.5951     5.7094 C.3     
  25 C25           12.2044    15.9558     3.9084 C.3     
  26 C26           14.1748    14.8971     7.0425 C.3     
  27 C27           -0.6311     5.4027    -1.1058 C.3     
  28 C28           10.7873    15.6184     3.4405 C.3     
  29 C29           15.5920    15.2345     7.5103 C.3     
  30 C30           10.0971    15.6110     1.0985 C.2     
  31 C31           10.5148    16.3059     2.1275 C.2     
  32 C32           15.8686    14.5365     8.8434 C.3     
  33 C33           17.2857    14.8738     9.3113 C.3     
  34 H34            4.7042    10.7787    -1.0628 H       
  35 H35            4.0296    11.1407     0.5441 H       
  36 H36            5.0654     8.4224    -0.3804 H       
  37 H37            4.3908     8.7843     1.2265 H       
  38 H38            6.1798    10.4894     1.5935 H       
  39 H39            6.8544    10.1274    -0.0134 H       
  40 H40            2.2407     9.4356     0.1772 H       
  41 H41            2.9152     9.0737    -1.4297 H       
  42 H42            6.4932    12.4838    -0.6958 H       
  43 H43            5.8186    12.8458     0.9111 H       
  44 H44            3.2764     6.7173    -0.7473 H       
  45 H45            2.6019     7.0793     0.8596 H       
  46 H46           -2.5616    -0.7392    -1.0755 H       
  47 H47           -4.3092    -0.9391    -0.8030 H       
  48 H48            7.9688    12.1945     1.9604 H       
  49 H49            8.6434    11.8325     0.3535 H       
  50 H50            0.4517     7.7305    -0.1898 H       
  51 H51            1.1263     7.3686    -1.7967 H       
  52 H52            8.2822    14.1889    -0.3289 H       
  53 H53            7.6076    14.5508     1.2780 H       
  54 H54           -2.1889     1.5648     1.0055 H       
  55 H55           -1.6814     0.3166     2.1686 H       
  56 H56           -1.2075     0.1844     0.4579 H       
  57 H57           -2.2343    -2.1132     0.9103 H       
  58 H58           -2.9198    -1.5820     2.4647 H       
  59 H59           -3.9922    -2.1873     1.1795 H       
  60 H60           -5.2742    -0.1630     1.2958 H       
  61 H61           -4.2017     0.4423     2.5810 H       
  62 H62           -4.4674     1.4130     1.1129 H       
  63 H63            1.4875     5.0122    -1.1143 H       
  64 H64            0.8129     5.3742     0.4926 H       
  65 H65           -4.5092     1.5556    -0.5760 H       
  66 H66           -3.9383     1.0476    -2.1835 H       
  67 H67            9.7578    13.8995     2.3274 H       
  68 H68           10.4324    13.5376     0.7205 H       
  69 H69           12.3878    14.1794     5.1132 H       
  70 H70           11.7618    15.5986     5.9862 H       
  71 H71           14.6174    15.2543     4.9646 H       
  72 H72           13.9914    16.6735     5.8376 H       
  73 H73           12.2976    17.0342     4.0367 H       
  74 H74           12.9237    15.6149     3.1637 H       
  75 H75           13.4556    15.2379     7.7872 H       
  76 H76           14.0816    13.8187     6.9142 H       
  77 H77           -0.6627     5.6635    -2.1637 H       
  78 H78           -1.3373     6.0255    -0.5567 H       
  79 H79           10.6941    14.5400     3.3123 H       
  80 H80           10.0680    15.9593     4.1853 H       
  81 H81           16.3112    14.8936     6.7656 H       
  82 H82           15.6852    16.3129     7.6386 H       
  83 H83           10.0187    16.0776     0.1277 H       
  84 H84           10.6638    17.3716     2.0347 H       
  85 H85           15.1493    14.8773     9.5881 H       
  86 H86           15.7754    13.4581     8.7151 H       
  87 H87           17.4828    14.3765    10.2610 H       
  88 H88           18.0050    14.5330     8.5666 H       
  89 H89           17.3789    15.9522     9.4396 H       
@<TRIPOS>BOND
   1    1    2 1
   2    1    3 1
   3    1    4 ar
   4    1    5 ar
   5    2   21 1
   6    3   27 1
   7    6   13 1
   8    6   17 1
   9    6   18 1
  10    6   19 1
  11    7    8 1
  12    7    9 1
  13    7   34 1
  14    7   35 1
  15    8   10 1
  16    8   36 1
  17    8   37 1
  18    9   11 1
  19    9   38 1
  20    9   39 1
  21   10   12 1
  22   10   40 1
  23   10   41 1
  24   11   14 1
  25   11   42 1
  26   11   43 1
  27   12   15 1
  28   12   44 1
  29   12   45 1
  30   13   21 1
  31   13   46 1
  32   13   47 1
  33   14   16 1
  34   14   48 1
  35   14   49 1
  36   15   20 1
  37   15   50 1
  38   15   51 1
  39   16   22 1
  40   16   52 1
  41   16   53 1
  42   17   60 1
  43   17   61 1
  44   17   62 1
  45   18   57 1
  46   18   58 1
  47   18   59 1
  48   19   54 1
  49   19   55 1
  50   19   56 1
  51   20   27 1
  52   20   63 1
  53   20   64 1
  54   21   65 1
  55   21   66 1
  56   22   30 1
  57   22   67 1
  58   22   68 1
  59   23   24 1
  60   23   25 1
  61   23   69 1
  62   23   70 1
  63   24   26 1
  64   24   71 1
  65   24   72 1
  66   25   28 1
  67   25   73 1
  68   25   74 1
  69   26   29 1
  70   26   75 1
  71   26   76 1
  72   27   77 1
  73   27   78 1
  74   28   31 1
  75   28   79 1
  76   28   80 1
  77   29   32 1
  78   29   81 1
  79   29   82 1
  80   30   31 2
  81   30   83 1
  82   31   84 1
  83   32   33 1
  84   32   85 1
  85   32   86 1
  86   33   87 1
  87   33   88 1
  88   33   89 1

#	End of record

