#	Name: ASD01881730
#	Creating user name:	WinNT
#	Creation time:	15. 06. 2019 19:43

#	Modifying user name:	WinNT
#	Modification time:	15. 06. 2019 19:43

#	Program:	/corina/corina34_cracker 3.40 0067  02.08.2006

@<TRIPOS>MOLECULE
ASD01881730
  59   62    0    0    0
SMALL
NO_CHARGES


@<TRIPOS>ATOM
   1 N1            -0.0178     1.4650     0.0101 N.am    
   2 C2             0.0021    -0.0041     0.0020 C.3     
   3 C3             0.8580    -0.4791    -1.1763 C.3     
   4 C4             2.2423     0.1678    -1.0896 C.3     
   5 C5             2.1025     1.6893    -1.1766 C.3     
   6 C6             1.2607     2.1889     0.0018 C.3     
   7 C7            -1.1868     2.1359     0.0193 C.2     
   8 O8            -2.2375     1.5256     0.0210 O.2     
   9 O9            -1.1902     3.4822     0.0266 O.3     
  10 O10            0.9920    -1.9009    -1.1259 O.3     
  11 C11            3.1114    -0.3311    -2.2457 C.3     
  12 O12            4.4376     0.1808    -2.1000 O.3     
  13 N13            8.2745    -1.0855    -5.7985 N.pl3   
  14 N14            9.3136    -0.3593    -5.1979 N.2     
  15 N15            8.8754     0.2141    -4.1331 N.2     
  16 C16            7.5709    -0.0720    -3.9499 C.ar    
  17 C17            7.1636    -0.9048    -5.0065 C.ar    
  18 C18            6.6401     0.2916    -2.9670 C.ar    
  19 C19            5.3430    -0.1706    -3.0519 C.ar    
  20 C20            4.9542    -0.9949    -4.1051 C.ar    
  21 C21            5.8510    -1.3588    -5.0697 C.ar    
  22 C22            8.3545    -1.8755    -7.0296 C.3     
  23 C23            8.7494    -3.3136    -6.6881 C.3     
  24 C24            8.7725    -4.3303    -7.8312 C.3     
  25 C25           10.0856    -3.8267    -7.2288 C.3     
  26 Br26           7.1590     1.4102    -1.5333 Br      
  27 C27           -2.4856     4.1381     0.0364 C.3     
  28 C28           -3.2605     3.7182     1.2870 C.3     
  29 C29           -2.2890     5.6554     0.0437 C.3     
  30 C30           -3.2723     3.7317    -1.2114 C.3     
  31 H31            0.4307    -0.3688     0.9355 H       
  32 H32           -1.0141    -0.3827    -0.1084 H       
  33 H33            0.3799    -0.1912    -2.1126 H       
  34 H34            2.7097    -0.1004    -0.1422 H       
  35 H35            3.0905     2.1482    -1.1383 H       
  36 H36            1.6127     1.9568    -2.1129 H       
  37 H37            1.0750     3.2573    -0.1088 H       
  38 H38            1.7919     2.0030     0.9352 H       
  39 H39            0.1517    -2.3771    -1.1737 H       
  40 H40            3.1393    -1.4207    -2.2354 H       
  41 H41            2.6911     0.0126    -3.1909 H       
  42 H42            3.9357    -1.3501    -4.1594 H       
  43 H43            5.5398    -1.9985    -5.8823 H       
  44 H44            7.3843    -1.8733    -7.5264 H       
  45 H45            9.1029    -1.4408    -7.6923 H       
  46 H46            8.4342    -3.6671    -5.7064 H       
  47 H47            8.4728    -5.3528    -7.6014 H       
  48 H48            8.5063    -3.9746    -8.8266 H       
  49 H49           10.6833    -3.1396    -7.8278 H       
  50 H50           10.6498    -4.5178    -6.6027 H       
  51 H51           -2.7000     4.0076     2.1759 H       
  52 H52           -4.2329     4.2105     1.2943 H       
  53 H53           -3.4005     2.6372     1.2818 H       
  54 H54           -1.7370     5.9545    -0.8473 H       
  55 H55           -3.2615     6.1477     0.0510 H       
  56 H56           -1.7285     5.9448     0.9326 H       
  57 H57           -3.4124     2.6508    -1.2166 H       
  58 H58           -4.2448     4.2241    -1.2041 H       
  59 H59           -2.7203     4.0309    -2.1024 H       
@<TRIPOS>BOND
   1    1    2 1
   2    1    6 1
   3    1    7 am
   4    2    3 1
   5    2   31 1
   6    2   32 1
   7    3    4 1
   8    3   10 1
   9    3   33 1
  10    4    5 1
  11    4   11 1
  12    4   34 1
  13    5    6 1
  14    5   35 1
  15    5   36 1
  16    6   37 1
  17    6   38 1
  18    7    8 2
  19    7    9 1
  20    9   27 1
  21   10   39 1
  22   11   12 1
  23   11   40 1
  24   11   41 1
  25   12   19 1
  26   13   14 1
  27   13   17 1
  28   13   22 1
  29   14   15 2
  30   15   16 1
  31   16   17 ar
  32   16   18 ar
  33   17   21 ar
  34   18   19 ar
  35   18   26 1
  36   19   20 ar
  37   20   21 ar
  38   20   42 1
  39   21   43 1
  40   22   23 1
  41   22   44 1
  42   22   45 1
  43   23   24 1
  44   23   25 1
  45   23   46 1
  46   24   25 1
  47   24   47 1
  48   24   48 1
  49   25   49 1
  50   25   50 1
  51   27   28 1
  52   27   30 1
  53   27   29 1
  54   28   51 1
  55   28   52 1
  56   28   53 1
  57   29   54 1
  58   29   55 1
  59   29   56 1
  60   30   57 1
  61   30   58 1
  62   30   59 1

#	End of record

