#	Name: ASD04880178
#	Creating user name:	WinNT
#	Creation time:	15. 06. 2019 20:52

#	Modifying user name:	WinNT
#	Modification time:	15. 06. 2019 20:52

#	Program:	/corina/corina34_cracker 3.40 0067  02.08.2006

@<TRIPOS>MOLECULE
ASD04880178
  38   40    0    0    0
SMALL
NO_CHARGES


@<TRIPOS>ATOM
   1 C1            -0.0144     1.2132     0.0087 C.2     
   2 O2             0.0021    -0.0041     0.0020 O.2     
   3 C3             1.2451     1.9634     0.0007 C.2     
   4 N4            -1.1907     1.8712     0.0179 N.am    
   5 N5            -1.3446     3.2560     0.0256 N.2     
   6 C6            -2.5718     3.6491     0.0337 C.2     
   7 C7            -3.4875     2.4460     0.0322 C.3     
   8 C8            -2.5220     1.2444     0.0149 C.3     
   9 C9            -3.0145     5.0552     0.0438 C.ar    
  10 C10           -2.0717     6.0864     0.0446 C.ar    
  11 C11           -2.4924     7.4031     0.0541 C.ar    
  12 C12           -3.8537     7.6995     0.0628 C.ar    
  13 C13           -4.7901     6.6759     0.0625 C.ar    
  14 C14           -4.3782     5.3601     0.0468 C.ar    
  15 O15           -4.2653     8.9950     0.0722 O.3     
  16 C16           -5.6752     9.2277     0.0808 C.3     
  17 O17           -1.5775     8.4092     0.0554 O.3     
  18 C18           -0.1990     8.0326     0.0465 C.3     
  19 C19            2.5001     1.4247    -0.0142 C.2     
  20 C20            3.4011     2.5009    -0.0170 C.2     
  21 C21            2.6663     3.6349    -0.0039 C.2     
  22 O22            1.3676     3.3070     0.0009 O.3     
  23 H23           -4.1036     2.4333     0.9313 H       
  24 H24           -4.1125     2.4423    -0.8608 H       
  25 H25           -2.6637     0.6490    -0.8871 H       
  26 H26           -2.6594     0.6315     0.9058 H       
  27 H27           -1.0167     5.8553     0.0382 H       
  28 H28           -5.8444     6.9103     0.0700 H       
  29 H29           -5.1093     4.5652     0.0413 H       
  30 H30           -5.8664    10.3008     0.0877 H       
  31 H31           -6.1220     8.7848    -0.8093 H       
  32 H32           -6.1127     8.7750     0.9706 H       
  33 H33            0.4223     8.9281     0.0486 H       
  34 H34            0.0203     7.4361     0.9321 H       
  35 H35            0.0117     7.4462    -0.8478 H       
  36 H36            2.7506     0.3742    -0.0217 H       
  37 H37            4.4791     2.4351    -0.0271 H       
  38 H38            3.0611     4.6402    -0.0022 H       
@<TRIPOS>BOND
   1    1    2 2
   2    1    3 1
   3    1    4 am
   4    3   19 2
   5    3   22 1
   6    4    5 1
   7    4    8 1
   8    5    6 2
   9    6    7 1
  10    6    9 1
  11    7    8 1
  12    7   23 1
  13    7   24 1
  14    8   25 1
  15    8   26 1
  16    9   10 ar
  17    9   14 ar
  18   10   11 ar
  19   10   27 1
  20   11   12 ar
  21   11   17 1
  22   12   13 ar
  23   12   15 1
  24   13   14 ar
  25   13   28 1
  26   14   29 1
  27   15   16 1
  28   16   30 1
  29   16   31 1
  30   16   32 1
  31   17   18 1
  32   18   33 1
  33   18   34 1
  34   18   35 1
  35   19   20 1
  36   19   36 1
  37   20   21 2
  38   20   37 1
  39   21   22 1
  40   21   38 1

#	End of record

