#	Name: ASD03910028
#	Creating user name:	WinNT
#	Creation time:	15. 06. 2019 20:47

#	Modifying user name:	WinNT
#	Modification time:	15. 06. 2019 20:47

#	Program:	/corina/corina34_cracker 3.40 0067  02.08.2006

@<TRIPOS>MOLECULE
ASD03910028
  52   54    0    0    0
SMALL
NO_CHARGES


@<TRIPOS>ATOM
   1 C1            -1.9302    -0.5969    -1.2105 C.ar    
   2 C2            -0.8126    -0.2649    -0.4669 C.ar    
   3 C3            -0.8404     0.8299     0.3773 C.ar    
   4 C4            -1.9854     1.5952     0.4806 C.ar    
   5 C5            -3.1095     1.2645    -0.2648 C.ar    
   6 C6            -3.0763     0.1679    -1.1163 C.ar    
   7 N7            -4.2711     2.0378    -0.1624 N.am    
   8 C8            -4.1801     3.3748    -0.0192 C.2     
   9 C9            -5.4282     4.2195    -0.0207 C.3     
  10 O10           -3.0938     3.8983     0.1109 O.2     
  11 C11           -5.0541     5.6688     0.1539 C.ar    
  12 C12           -4.7990     6.4542    -0.9551 C.ar    
  13 C13           -4.4559     7.7831    -0.7976 C.ar    
  14 C14           -4.3674     8.3294     0.4745 C.ar    
  15 C15           -4.6238     7.5393     1.5856 C.ar    
  16 C16           -4.9720     6.2124     1.4226 C.ar    
  17 O17           -4.0296     9.6363     0.6320 O.3     
  18 C18           -3.6603    10.3573    -0.5452 C.3     
  19 C19           -4.8888    10.9746    -1.1623 C.2     
  20 C20           -1.8955    -1.7910    -2.1293 C.3     
  21 C21            0.3799     1.1881     1.1858 C.3     
  22 O22           -5.9548    10.8904    -0.5997 O.2     
  23 O23           -4.7988    11.6181    -2.3369 O.3     
  24 C24           -2.6806    11.4434    -0.1824 C.ar    
  25 C25           -1.6670    11.7811    -1.0596 C.ar    
  26 C26           -0.7682    12.7773    -0.7268 C.ar    
  27 C27           -0.8834    13.4362     0.4830 C.ar    
  28 C28           -1.8976    13.0991     1.3598 C.ar    
  29 C29           -2.7989    12.1058     1.0251 C.ar    
  30 H30            0.0838    -0.8622    -0.5454 H       
  31 H31           -2.0067     2.4498     1.1407 H       
  32 H32           -3.9487    -0.0917    -1.6976 H       
  33 H33           -5.1419     1.6116    -0.1944 H       
  34 H34           -5.9526     4.0911    -0.9676 H       
  35 H35           -6.0770     3.9104     0.7988 H       
  36 H36           -4.8677     6.0283    -1.9452 H       
  37 H37           -4.2564     8.3960    -1.6642 H       
  38 H38           -4.5555     7.9623     2.5770 H       
  39 H39           -5.1718     5.5969     2.2873 H       
  40 H40           -3.1987     9.6753    -1.2592 H       
  41 H41           -2.2189    -2.6780    -1.5846 H       
  42 H42           -2.5634    -1.6193    -2.9734 H       
  43 H43           -0.8792    -1.9391    -2.4943 H       
  44 H44            1.0059     1.8736     0.6146 H       
  45 H45            0.0721     1.6663     2.1157 H       
  46 H46            0.9443     0.2835     1.4120 H       
  47 H47           -5.6137    11.9976    -2.6931 H       
  48 H48           -1.5770    11.2664    -2.0048 H       
  49 H49            0.0241    13.0407    -1.4118 H       
  50 H50           -0.1808    14.2140     0.7433 H       
  51 H51           -1.9873    13.6136     2.3051 H       
  52 H52           -3.5912    11.8425     1.7101 H       
@<TRIPOS>BOND
   1    1    2 ar
   2    1   20 1
   3    1    6 ar
   4    2    3 ar
   5    2   30 1
   6    3    4 ar
   7    3   21 1
   8    4    5 ar
   9    4   31 1
  10    5    6 ar
  11    5    7 1
  12    6   32 1
  13    7    8 am
  14    7   33 1
  15    8    9 1
  16    8   10 2
  17    9   11 1
  18    9   34 1
  19    9   35 1
  20   11   12 ar
  21   11   16 ar
  22   12   13 ar
  23   12   36 1
  24   13   14 ar
  25   13   37 1
  26   14   15 ar
  27   14   17 1
  28   15   16 ar
  29   15   38 1
  30   16   39 1
  31   17   18 1
  32   18   19 1
  33   18   24 1
  34   18   40 1
  35   19   22 2
  36   19   23 1
  37   20   41 1
  38   20   42 1
  39   20   43 1
  40   21   44 1
  41   21   45 1
  42   21   46 1
  43   23   47 1
  44   24   25 ar
  45   24   29 ar
  46   25   26 ar
  47   25   48 1
  48   26   27 ar
  49   26   49 1
  50   27   28 ar
  51   27   50 1
  52   28   29 ar
  53   28   51 1
  54   29   52 1

#	End of record

