#	Name: ASD01916625
#	Creating user name:	WinNT
#	Creation time:	15. 06. 2019 20:07

#	Modifying user name:	WinNT
#	Modification time:	15. 06. 2019 20:07

#	Program:	/corina/corina34_cracker 3.40 0067  02.08.2006

@<TRIPOS>MOLECULE
ASD01916625
  43   46    0    0    0
SMALL
NO_CHARGES


@<TRIPOS>ATOM
   1 C1            -0.0171     1.4078     0.0098 C.ar    
   2 C2             0.0021    -0.0041     0.0020 C.ar    
   3 N3            -1.1272    -0.7012     0.0096 N.ar    
   4 C4            -2.2984    -0.1111     0.0276 C.ar    
   5 C5            -2.4080     1.2899     0.0376 C.ar    
   6 C6            -1.2494     2.0682     0.0309 C.ar    
   7 N7             1.1540     2.0897     0.0023 N.2     
   8 C8             2.3025     1.4830    -0.0028 C.2     
   9 N9             2.4127     0.1205    -0.0125 N.am    
  10 C10            1.3187    -0.6671    -0.0125 C.2     
  11 C11           -3.6970     1.9135     0.0571 C.1     
  12 O12            1.4143    -1.8805    -0.0248 O.2     
  13 C13           -4.7537     2.4247     0.0732 C.1     
  14 C14           -6.0427     3.0482     0.0927 C.ar    
  15 N15           -6.1342     4.3746     0.1020 N.ar    
  16 C16           -7.3008     4.9853     0.1196 C.ar    
  17 C17           -8.4810     4.2638     0.1291 C.ar    
  18 C18           -8.4326     2.8763     0.1200 C.ar    
  19 C19           -7.1954     2.2584     0.0962 C.ar    
  20 C20            3.5804     2.2929     0.0105 C.3     
  21 C21            4.2204     2.1915     1.3928 C.3     
  22 C22            5.1390     0.9857     1.4852 C.3     
  23 C23            4.3798    -0.3245     1.3629 C.3     
  24 C24            3.7563    -0.4715    -0.0236 C.3     
  25 F25            6.0879     1.0581     0.4598 F       
  26 F26            5.8018     1.0132     2.7170 F       
  27 C27            5.3437    -1.4877     1.6057 C.3     
  28 H28           -3.1950    -0.7130     0.0346 H       
  29 H29           -1.3031     3.1468     0.0369 H       
  30 H30           -7.3366     6.0646     0.1270 H       
  31 H31           -9.4320     4.7755     0.1438 H       
  32 H32           -9.3411     2.2924     0.1275 H       
  33 H33           -7.1213     1.1809     0.0881 H       
  34 H34            4.2679     1.9015    -0.7392 H       
  35 H35            3.3533     3.3359    -0.2105 H       
  36 H36            4.7973     3.0958     1.5866 H       
  37 H37            3.4359     2.1015     2.1441 H       
  38 H38            3.5909    -0.3522     2.1146 H       
  39 H39            3.6867    -1.5282    -0.2817 H       
  40 H40            4.3753     0.0439    -0.7580 H       
  41 H41            5.7703    -1.4035     2.6052 H       
  42 H42            4.8041    -2.4308     1.5191 H       
  43 H43            6.1434    -1.4574     0.8656 H       
@<TRIPOS>BOND
   1    1    2 ar
   2    1    7 1
   3    1    6 ar
   4    2    3 ar
   5    2   10 1
   6    3    4 ar
   7    4    5 ar
   8    4   28 1
   9    5    6 ar
  10    5   11 1
  11    6   29 1
  12    7    8 2
  13    8    9 1
  14    8   20 1
  15    9   10 am
  16    9   24 1
  17   10   12 2
  18   11   13 3
  19   13   14 1
  20   14   15 ar
  21   14   19 ar
  22   15   16 ar
  23   16   17 ar
  24   16   30 1
  25   17   18 ar
  26   17   31 1
  27   18   19 ar
  28   18   32 1
  29   19   33 1
  30   20   21 1
  31   20   34 1
  32   20   35 1
  33   21   22 1
  34   21   36 1
  35   21   37 1
  36   22   23 1
  37   22   25 1
  38   22   26 1
  39   23   24 1
  40   23   27 1
  41   23   38 1
  42   24   39 1
  43   24   40 1
  44   27   41 1
  45   27   42 1
  46   27   43 1

#	End of record

