#	Name: ASD01680104
#	Creating user name:	WinNT
#	Creation time:	15. 06. 2019 19:22

#	Modifying user name:	WinNT
#	Modification time:	15. 06. 2019 19:22

#	Program:	/corina/corina34_cracker 3.40 0067  02.08.2006

@<TRIPOS>MOLECULE
ASD01680104
  78   80    0    0    0
SMALL
NO_CHARGES


@<TRIPOS>ATOM
   1 N1            -0.4973    -1.5695    -2.3231 N.am    
   2 C2            -0.2137    -2.9365    -2.7966 C.3     
   3 C3             1.0718    -3.3587    -2.0423 C.3     
   4 C4             1.8656    -2.0260    -2.0095 C.3     
   5 C5             0.7557    -0.9664    -1.8456 C.3     
   6 C6            -1.7043    -0.9698    -2.3318 C.2     
   7 O7            -2.6547    -1.5247    -2.8469 O.2     
   8 O8            -1.8569     0.2442    -1.7699 O.3     
   9 C9            -1.3705    -3.8733    -2.4429 C.3     
  10 N10           -1.7122    -3.7144    -1.0272 N.pl3   
  11 C11           -2.7985    -4.3980    -0.4935 C.ar    
  12 C12           -3.5571    -5.2316    -1.3094 C.ar    
  13 C13           -4.6351    -5.9057    -0.7652 C.ar    
  14 C14           -4.9197    -5.7231     0.5818 C.ar    
  15 C15           -4.1248    -4.8808     1.3326 C.ar    
  16 N16           -3.0988    -4.2544     0.7879 N.ar    
  17 O17            2.7601    -1.9976    -0.8954 O.3     
  18 C18            3.9417    -1.2254    -1.1183 C.3     
  19 C19            4.8075    -1.2649     0.1146 C.2     
  20 N20            5.9813    -0.6028     0.1352 N.am    
  21 O21            4.4481    -1.8925     1.0882 O.2     
  22 C22            6.8230    -0.6411     1.3337 C.3     
  23 C23            8.0881     0.1856     1.0951 C.3     
  24 N24            7.7151     1.5421     0.6864 N.am    
  25 S25            8.6459     2.3616    -0.4111 S.o2    
  26 O26            8.0096     3.6147    -0.6205 O.2     
  27 O27            9.9906     2.2370     0.0309 O.2     
  28 C28            8.5413     1.4890    -1.9383 C.ar    
  29 C29            9.4341     0.4705    -2.2150 C.ar    
  30 C30            9.3520    -0.2140    -3.4132 C.ar    
  31 C31            8.3770     0.1198    -4.3345 C.ar    
  32 C32            7.4837     1.1377    -4.0574 C.ar    
  33 C33            7.5630     1.8193    -2.8574 C.ar    
  34 C34            6.5859     2.9256    -2.5532 C.3     
  35 C35            8.2882    -0.6258    -5.6411 C.3     
  36 C36           10.4970     0.1067    -1.2106 C.3     
  37 C37            8.8946     0.2479     2.3665 C.2     
  38 O38            9.1334     1.3159     2.8787 O.2     
  39 O39            9.3478    -0.8830     2.9300 O.3     
  40 C40           -3.1848     0.8298    -1.8163 C.3     
  41 C41           -3.1625     2.1988    -1.1334 C.3     
  42 H42           -0.0395    -2.9368    -3.8726 H       
  43 H43            0.8388    -3.6995    -1.0335 H       
  44 H44            1.6159    -4.1240    -2.5956 H       
  45 H45            2.4068    -1.8763    -2.9438 H       
  46 H46            0.9935    -0.0852    -2.4414 H       
  47 H47            0.6580    -0.6912    -0.7955 H       
  48 H48           -2.2377    -3.6272    -3.0558 H       
  49 H49           -1.0733    -4.9049    -2.6314 H       
  50 H50           -1.1805    -3.1322    -0.4623 H       
  51 H51           -3.3077    -5.3503    -2.3534 H       
  52 H52           -5.2422    -6.5592    -1.3742 H       
  53 H53           -5.7548    -6.2347     1.0371 H       
  54 H54           -4.3426    -4.7360     2.3805 H       
  55 H55            4.4927    -1.6398    -1.9626 H       
  56 H56            3.6658    -0.1936    -1.3356 H       
  57 H57            6.2687    -0.1009    -0.6435 H       
  58 H58            6.2720    -0.2268     2.1780 H       
  59 H59            7.0988    -1.6730     1.5510 H       
  60 H60            8.6834    -0.2798     0.3095 H       
  61 H61            6.9230     1.9602     1.0586 H       
  62 H62           10.0500    -1.0092    -3.6296 H       
  63 H63            6.7222     1.3987    -4.7774 H       
  64 H64            7.0456     3.8881    -2.7773 H       
  65 H65            5.6920     2.7989    -3.1638 H       
  66 H66            6.3135     2.8898    -1.4984 H       
  67 H67            7.6272    -1.4846    -5.5252 H       
  68 H68            7.8921     0.0364    -6.4111 H       
  69 H69            9.2812    -0.9683    -5.9322 H       
  70 H70           10.0645    -0.5290    -0.4380 H       
  71 H71           11.3031    -0.4286    -1.7124 H       
  72 H72           10.8923     1.0146    -0.7549 H       
  73 H73            9.8605    -0.7926     3.7448 H       
  74 H74           -3.4942     0.9468    -2.8549 H       
  75 H75           -3.8880     0.1771    -1.2990 H       
  76 H76           -4.1593     2.6384    -1.1682 H       
  77 H77           -2.8531     2.0818    -0.0949 H       
  78 H78           -2.4593     2.8515    -1.6507 H       
@<TRIPOS>BOND
   1    1    2 1
   2    1    5 1
   3    1    6 am
   4    2    3 1
   5    2    9 1
   6    2   42 1
   7    3    4 1
   8    3   43 1
   9    3   44 1
  10    4    5 1
  11    4   17 1
  12    4   45 1
  13    5   46 1
  14    5   47 1
  15    6    7 2
  16    6    8 1
  17    8   40 1
  18    9   10 1
  19    9   48 1
  20    9   49 1
  21   10   11 1
  22   10   50 1
  23   11   12 ar
  24   11   16 ar
  25   12   13 ar
  26   12   51 1
  27   13   14 ar
  28   13   52 1
  29   14   15 ar
  30   14   53 1
  31   15   16 ar
  32   15   54 1
  33   17   18 1
  34   18   19 1
  35   18   55 1
  36   18   56 1
  37   19   20 am
  38   19   21 2
  39   20   22 1
  40   20   57 1
  41   22   23 1
  42   22   58 1
  43   22   59 1
  44   23   24 1
  45   23   37 1
  46   23   60 1
  47   24   25 am
  48   24   61 1
  49   25   26 2
  50   25   27 2
  51   25   28 1
  52   28   29 ar
  53   28   33 ar
  54   29   30 ar
  55   29   36 1
  56   30   31 ar
  57   30   62 1
  58   31   32 ar
  59   31   35 1
  60   32   33 ar
  61   32   63 1
  62   33   34 1
  63   34   64 1
  64   34   65 1
  65   34   66 1
  66   35   67 1
  67   35   68 1
  68   35   69 1
  69   36   70 1
  70   36   71 1
  71   36   72 1
  72   37   38 2
  73   37   39 1
  74   39   73 1
  75   40   41 1
  76   40   74 1
  77   40   75 1
  78   41   76 1
  79   41   77 1
  80   41   78 1

#	End of record

