#	Name: ASD04880432
#	Creating user name:	WinNT
#	Creation time:	15. 06. 2019 20:53

#	Modifying user name:	WinNT
#	Modification time:	15. 06. 2019 20:53

#	Program:	/corina/corina34_cracker 3.40 0067  02.08.2006

@<TRIPOS>MOLECULE
ASD04880432
  39   41    0    0    0
SMALL
NO_CHARGES


@<TRIPOS>ATOM
   1 C1            -0.0054     1.3608     0.3002 C.ar    
   2 C2             0.0100    -0.0224     0.2667 C.ar    
   3 C3            -1.1745    -0.7276     0.2191 C.ar    
   4 C4            -2.3915    -0.0420     0.2052 C.ar    
   5 C5            -2.3993     1.3545     0.2397 C.ar    
   6 C6            -1.2072     2.0464     0.2920 C.ar    
   7 C7            -3.6621    -0.7889     0.1539 C.2     
   8 N8            -3.7691    -2.0723     0.1194 N.2     
   9 N9            -5.0833    -2.5330     0.0746 N.am    
  10 C10           -5.9933    -1.3765     0.0801 C.3     
  11 C11           -5.0400    -0.1666     0.1404 C.3     
  12 C12           -5.4596    -3.8265     0.0329 C.2     
  13 C13           -4.4400    -4.8890    -0.0940 C.ar    
  14 O14           -6.6378    -4.1193     0.0998 O.2     
  15 C15           -3.1059    -4.5536    -0.3143 C.ar    
  16 C16           -2.1508    -5.5620    -0.4324 C.ar    
  17 C17           -2.5368    -6.9008    -0.3292 C.ar    
  18 C18           -3.8611    -7.2258    -0.1108 C.ar    
  19 C19           -4.8112    -6.2319     0.0123 C.ar    
  20 S20            1.5127     2.2532     0.3609 S.o     
  21 C21            1.9095     2.5031    -1.3915 C.3     
  22 O22            1.1318     3.4929     0.9417 O.2     
  23 C23           -0.7772    -5.2266    -0.6593 C.1     
  24 N24            0.3124    -4.9605    -0.8394 N.1     
  25 H25            0.9516    -0.5512     0.2775 H       
  26 H26           -1.1611    -1.8072     0.1924 H       
  27 H27           -3.3366     1.8910     0.2288 H       
  28 H28           -1.2117     3.1261     0.3190 H       
  29 H29           -6.5904    -1.3539    -0.8315 H       
  30 H30           -6.6359    -1.3983     0.9603 H       
  31 H31           -5.2131     0.4117     1.0480 H       
  32 H32           -5.1619     0.4605    -0.7428 H       
  33 H33           -2.8130    -3.5171    -0.3936 H       
  34 H34           -1.7980    -7.6833    -0.4208 H       
  35 H35           -4.1542    -8.2623    -0.0319 H       
  36 H36           -5.8451    -6.4931     0.1834 H       
  37 H37            1.1094     3.0695    -1.8680 H       
  38 H38            2.8458     3.0547    -1.4769 H       
  39 H39            2.0118     1.5353    -1.8824 H       
@<TRIPOS>BOND
   1    1    2 ar
   2    1   20 1
   3    1    6 ar
   4    2    3 ar
   5    2   25 1
   6    3    4 ar
   7    3   26 1
   8    4    5 ar
   9    4    7 1
  10    5    6 ar
  11    5   27 1
  12    6   28 1
  13    7    8 2
  14    7   11 1
  15    8    9 1
  16    9   10 1
  17    9   12 am
  18   10   11 1
  19   10   29 1
  20   10   30 1
  21   11   31 1
  22   11   32 1
  23   12   13 1
  24   12   14 2
  25   13   15 ar
  26   13   19 ar
  27   15   16 ar
  28   15   33 1
  29   16   17 ar
  30   16   23 1
  31   17   18 ar
  32   17   34 1
  33   18   19 ar
  34   18   35 1
  35   19   36 1
  36   20   21 1
  37   20   22 2
  38   21   37 1
  39   21   38 1
  40   21   39 1
  41   23   24 3

#	End of record

