#	Name: ASD08170053
#	Creating user name:	WinNT
#	Creation time:	15. 06. 2019 21:17

#	Modifying user name:	WinNT
#	Modification time:	15. 06. 2019 21:17

#	Program:	/corina/corina34_cracker 3.40 0067  02.08.2006

@<TRIPOS>MOLECULE
ASD08170053
  63   65    0    0    0
SMALL
NO_CHARGES


@<TRIPOS>ATOM
   1 N1            -0.0105     1.5796     0.0762 N.2     
   2 C2             1.0491     2.3240    -0.0136 C.2     
   3 C3             0.9537     3.7743     0.2308 C.ar    
   4 C4             2.0935     4.5773     0.1346 C.ar    
   5 C5             2.0002     5.9333     0.3634 C.ar    
   6 C6             0.7731     6.5023     0.6902 C.ar    
   7 C7            -0.3628     5.7057     0.7872 C.ar    
   8 C8            -0.2781     4.3508     0.5537 C.ar    
   9 N9             0.6822     7.8751     0.9217 N.3     
  10 C10           -0.2478     8.5078    -0.0232 C.3     
  11 C11            0.2899     8.1500     2.3104 C.3     
  12 Br12           3.5413     7.0213     0.2337 Br      
  13 N13            0.0801     0.2010    -0.1561 N.am    
  14 C14           -1.0200    -0.5719    -0.0629 C.2     
  15 C15           -0.9225    -2.0549    -0.3128 C.3     
  16 O16           -2.0889    -0.0738     0.2222 O.2     
  17 N17           -2.2444    -2.6653    -0.1512 N.am    
  18 S18           -3.2123    -2.9064    -1.4731 S.o2    
  19 C19           -2.6884    -3.0439     1.1177 C.ar    
  20 C20           -2.1961    -2.4017     2.2461 C.ar    
  21 C21           -2.6373    -2.7782     3.5053 C.ar    
  22 C22           -3.5702    -3.7959     3.6381 C.ar    
  23 C23           -4.0625    -4.4378     2.5115 C.ar    
  24 C24           -3.6266    -4.0587     1.2512 C.ar    
  25 O25           -2.1553    -2.1502     4.6098 O.3     
  26 C26           -2.6537    -2.5892     5.8751 C.3     
  27 O27           -4.9762    -5.4351     2.6427 O.3     
  28 C28           -5.3847    -5.7701     3.9705 C.3     
  29 C29           -2.8014    -4.4850    -2.1394 C.ar    
  30 O30           -4.5420    -3.0114    -0.9831 O.2     
  31 O31           -2.8146    -1.9461    -2.4421 O.2     
  32 C32           -3.5511    -5.5953    -1.7988 C.ar    
  33 C33           -3.2288    -6.8338    -2.3215 C.ar    
  34 C34           -2.1570    -6.9619    -3.1851 C.ar    
  35 C35           -1.4078    -5.8514    -3.5263 C.ar    
  36 C36           -1.7328    -4.6122    -3.0071 C.ar    
  37 H37            2.0006     1.8805    -0.2674 H       
  38 H38            3.0461     4.1359    -0.1183 H       
  39 H39           -1.3134     6.1507     1.0418 H       
  40 H40           -1.1608     3.7331     0.6292 H       
  41 H41           -1.2383     8.0676     0.0921 H       
  42 H42           -0.2998     9.5775     0.1795 H       
  43 H43            0.1046     8.3477    -1.0421 H       
  44 H44            1.0332     7.7298     2.9879 H       
  45 H45            0.2265     9.2273     2.4635 H       
  46 H46           -0.6811     7.6968     2.5101 H       
  47 H47            0.9347    -0.1973    -0.3841 H       
  48 H48           -0.5631    -2.2296    -1.3269 H       
  49 H49           -0.2278    -2.4986     0.4004 H       
  50 H50           -1.4694    -1.6095     2.1429 H       
  51 H51           -3.9132    -4.0889     4.6193 H       
  52 H52           -4.0100    -4.5587     0.3740 H       
  53 H53           -2.1886    -2.0070     6.6706 H       
  54 H54           -3.7344    -2.4509     5.9077 H       
  55 H55           -2.4182    -3.6446     6.0120 H       
  56 H56           -5.8341    -4.8970     4.4435 H       
  57 H57           -6.1144    -6.5790     3.9330 H       
  58 H58           -4.5171    -6.0899     4.5477 H       
  59 H59           -4.3885    -5.4953    -1.1242 H       
  60 H60           -3.8141    -7.7014    -2.0549 H       
  61 H61           -1.9047    -7.9296    -3.5928 H       
  62 H62           -0.5702    -5.9515    -4.2007 H       
  63 H63           -1.1475    -3.7445    -3.2737 H       
@<TRIPOS>BOND
   1    1   13 1
   2    1    2 2
   3    2    3 1
   4    2   37 1
   5    3    4 ar
   6    3    8 ar
   7    4    5 ar
   8    4   38 1
   9    5    6 ar
  10    5   12 1
  11    6    7 ar
  12    6    9 1
  13    7    8 ar
  14    7   39 1
  15    8   40 1
  16    9   10 1
  17    9   11 1
  18   10   41 1
  19   10   42 1
  20   10   43 1
  21   11   44 1
  22   11   45 1
  23   11   46 1
  24   13   14 am
  25   13   47 1
  26   14   15 1
  27   14   16 2
  28   15   17 1
  29   15   48 1
  30   15   49 1
  31   17   18 am
  32   17   19 1
  33   18   29 1
  34   18   30 2
  35   18   31 2
  36   19   20 ar
  37   19   24 ar
  38   20   21 ar
  39   20   50 1
  40   21   22 ar
  41   21   25 1
  42   22   23 ar
  43   22   51 1
  44   23   24 ar
  45   23   27 1
  46   24   52 1
  47   25   26 1
  48   26   53 1
  49   26   54 1
  50   26   55 1
  51   27   28 1
  52   28   56 1
  53   28   57 1
  54   28   58 1
  55   29   32 ar
  56   29   36 ar
  57   32   33 ar
  58   32   59 1
  59   33   34 ar
  60   33   60 1
  61   34   35 ar
  62   34   61 1
  63   35   36 ar
  64   35   62 1
  65   36   63 1

#	End of record

