#	Name: ASD07300694
#	Creating user name:	WinNT
#	Creation time:	15. 06. 2019 21:10

#	Modifying user name:	WinNT
#	Modification time:	15. 06. 2019 21:10

#	Program:	/corina/corina34_cracker 3.40 0067  02.08.2006

@<TRIPOS>MOLECULE
ASD07300694
  38   41    0    0    0
SMALL
NO_CHARGES


@<TRIPOS>ATOM
   1 C1            -0.0034     1.3925     0.2414 C.2     
   2 C2             0.0021    -0.0041     0.0020 C.2     
   3 N3             1.1927     2.0681     0.2265 N.pl3   
   4 N4             1.1445    -0.6201    -0.2279 N.2     
   5 C5             2.3038     0.0468    -0.2402 C.2     
   6 C6             2.3506     1.3749    -0.0179 C.2     
   7 N7            -0.9664     2.2610     0.5002 N.2     
   8 C8            -0.4402     3.4745     0.6473 C.2     
   9 C9             0.9143     3.3819     0.4814 C.2     
  10 N10            2.8799     6.4453     0.3125 N.pl3   
  11 C11            1.7668     5.7232    -0.0015 C.2     
  12 C12            1.8910     4.4905     0.5645 C.2     
  13 C13            3.1341     4.4703     1.2493 C.2     
  14 C14            3.7084     5.6750     1.0749 C.2     
  15 N15           -1.1860    -0.7178     0.0100 N.pl3   
  16 C16           -2.4813    -0.0311     0.1360 C.3     
  17 C17           -3.4038    -0.5300    -0.9821 C.3     
  18 O18           -3.4381    -1.9590    -0.9615 O.3     
  19 C19           -2.1747    -2.5785    -1.2141 C.3     
  20 C20           -1.1896    -2.1841    -0.1135 C.3     
  21 C21           -1.2065     4.7362     0.9508 C.3     
  22 H22            3.2210    -0.4901    -0.4320 H       
  23 H23            3.2983     1.8927    -0.0324 H       
  24 H24            3.0561     7.3579     0.0351 H       
  25 H25            0.9327     6.0682    -0.5944 H       
  26 H26            3.5434     3.6414     1.8076 H       
  27 H27            4.6650     5.9807     1.4721 H       
  28 H28           -2.9242    -0.2578     1.1059 H       
  29 H29           -2.3372     1.0451     0.0402 H       
  30 H30           -4.4094    -0.1393    -0.8259 H       
  31 H31           -3.0254    -0.1887    -1.9457 H       
  32 H32           -2.2960    -3.6617    -1.2248 H       
  33 H33           -1.7919    -2.2447    -2.1785 H       
  34 H34           -0.1905    -2.5330    -0.3744 H       
  35 H35           -1.5002    -2.6313     0.8308 H       
  36 H36           -1.2755     4.8685     2.0305 H       
  37 H37           -0.6893     5.5897     0.5124 H       
  38 H38           -2.2088     4.6629     0.5289 H       
@<TRIPOS>BOND
   1    1    2 1
   2    1    3 1
   3    1    7 2
   4    2    4 2
   5    2   15 1
   6    3    6 1
   7    3    9 1
   8    4    5 1
   9    5    6 2
  10    5   22 1
  11    6   23 1
  12    7    8 1
  13    8    9 2
  14    8   21 1
  15    9   12 1
  16   10   11 1
  17   10   14 1
  18   10   24 1
  19   11   12 2
  20   11   25 1
  21   12   13 1
  22   13   14 2
  23   13   26 1
  24   14   27 1
  25   15   16 1
  26   15   20 1
  27   16   17 1
  28   16   28 1
  29   16   29 1
  30   17   18 1
  31   17   30 1
  32   17   31 1
  33   18   19 1
  34   19   20 1
  35   19   32 1
  36   19   33 1
  37   20   34 1
  38   20   35 1
  39   21   36 1
  40   21   37 1
  41   21   38 1

#	End of record

