#	Name: ASD01230067
#	Creating user name:	WinNT
#	Creation time:	15. 06. 2019 19:11

#	Modifying user name:	WinNT
#	Modification time:	15. 06. 2019 19:11

#	Program:	/corina/corina34_cracker 3.40 0067  02.08.2006

@<TRIPOS>MOLECULE
ASD01230067
  61   65    0    0    0
SMALL
NO_CHARGES


@<TRIPOS>ATOM
   1 C1            -0.0167     1.3791     0.0096 C.ar    
   2 C2             0.0021    -0.0041     0.0020 C.ar    
   3 C3             1.2063    -0.6846    -0.0132 C.ar    
   4 C4             2.3966     0.0138    -0.0204 C.ar    
   5 C5             2.3837     1.4075    -0.0128 C.ar    
   6 C6             1.1674     2.0879     0.0021 C.ar    
   7 C7             3.6596     2.1636    -0.0200 C.ar    
   8 N8             4.8249     1.5220    -0.0337 N.ar    
   9 C9             5.9652     2.1950    -0.0406 C.ar    
  10 N10            5.9920     3.5207    -0.0337 N.ar    
  11 C11            4.8721     4.2241    -0.0201 C.ar    
  12 C12            3.6562     3.5616    -0.0183 C.ar    
  13 C13            4.9188     5.7304    -0.0124 C.3     
  14 C14            7.2466     1.4461    -0.0559 C.ar    
  15 C15            8.4686     2.1189    -0.0635 C.ar    
  16 C16            7.2603     0.0477    -0.0572 C.ar    
  17 C17            8.4718    -0.6148    -0.0711 C.ar    
  18 N18            9.6093     0.0503    -0.0828 N.ar    
  19 C19            9.6460     1.3763    -0.0774 C.ar    
  20 C20           10.9547     2.0748    -0.0916 C.ar    
  21 C21           12.1393     1.3406    -0.1105 C.ar    
  22 C22           13.3538     1.9956    -0.1241 C.ar    
  23 C23           13.3970     3.3784    -0.1191 C.ar    
  24 C24           12.2247     4.1120    -0.1003 C.ar    
  25 C25           11.0041     3.4673    -0.0919 C.ar    
  26 S26           14.8523     1.0691    -0.1475 S.o2    
  27 N27           15.2483     0.8172    -1.7356 N.am    
  28 O28           15.8580     1.9190     0.3869 O.2     
  29 O29           14.5436    -0.2070     0.3963 O.2     
  30 C30           16.0928     1.7751    -2.4668 C.3     
  31 C31           17.2266     0.9992    -3.1468 C.3     
  32 O32           16.6703    -0.0713    -3.9139 O.3     
  33 C33           15.9649    -1.0427    -3.1376 C.3     
  34 C34           14.7711    -0.3741    -2.4555 C.3     
  35 C35           -1.2943    -0.7724     0.0108 C.3     
  36 F36           -1.7086    -1.0031    -1.3054 F       
  37 F37           -1.1066    -1.9963     0.6619 F       
  38 F38           -2.2712    -0.0311     0.6841 F       
  39 H39           -0.9598     1.9053     0.0170 H       
  40 H40            1.2150    -1.7646    -0.0191 H       
  41 H41            3.3362    -0.5186    -0.0315 H       
  42 H42            1.1516     3.1677     0.0077 H       
  43 H43            2.7270     4.1119    -0.0076 H       
  44 H44            4.9210     6.0990    -1.0382 H       
  45 H45            4.0451     6.1183     0.5112 H       
  46 H46            5.8242     6.0632     0.4952 H       
  47 H47            8.5007     3.1984    -0.0591 H       
  48 H48            6.3340    -0.5076    -0.0470 H       
  49 H49            8.4873    -1.6947    -0.0722 H       
  50 H50           12.1067     0.2611    -0.1141 H       
  51 H51           14.3497     3.8869    -0.1294 H       
  52 H52           12.2642     5.1912    -0.0961 H       
  53 H53           10.0893     4.0411    -0.0777 H       
  54 H54           15.4965     2.2895    -3.2204 H       
  55 H55           16.5113     2.5017    -1.7704 H       
  56 H56           17.7821     1.6679    -3.8043 H       
  57 H57           17.8963     0.5939    -2.3883 H       
  58 H58           15.6127    -1.8429    -3.7885 H       
  59 H59           16.6300    -1.4554    -2.3791 H       
  60 H60           14.3125    -1.0702    -1.7531 H       
  61 H61           14.0399    -0.0743    -3.2062 H       
@<TRIPOS>BOND
   1    1    2 ar
   2    1    6 ar
   3    1   39 1
   4    2   35 1
   5    2    3 ar
   6    3    4 ar
   7    3   40 1
   8    4    5 ar
   9    4   41 1
  10    5    6 ar
  11    5    7 1
  12    6   42 1
  13    7    8 ar
  14    7   12 ar
  15    8    9 ar
  16    9   10 ar
  17    9   14 1
  18   10   11 ar
  19   11   12 ar
  20   11   13 1
  21   12   43 1
  22   13   44 1
  23   13   45 1
  24   13   46 1
  25   14   15 ar
  26   14   16 ar
  27   15   19 ar
  28   15   47 1
  29   16   17 ar
  30   16   48 1
  31   17   18 ar
  32   17   49 1
  33   18   19 ar
  34   19   20 1
  35   20   21 ar
  36   20   25 ar
  37   21   22 ar
  38   21   50 1
  39   22   23 ar
  40   22   26 1
  41   23   24 ar
  42   23   51 1
  43   24   25 ar
  44   24   52 1
  45   25   53 1
  46   26   27 am
  47   26   28 2
  48   26   29 2
  49   27   30 1
  50   27   34 1
  51   30   31 1
  52   30   54 1
  53   30   55 1
  54   31   32 1
  55   31   56 1
  56   31   57 1
  57   32   33 1
  58   33   34 1
  59   33   58 1
  60   33   59 1
  61   34   60 1
  62   34   61 1
  63   35   36 1
  64   35   37 1
  65   35   38 1

#	End of record

