#	Name: ASD05430265
#	Creating user name:	WinNT
#	Creation time:	15. 06. 2019 21:00

#	Modifying user name:	WinNT
#	Modification time:	15. 06. 2019 21:00

#	Program:	/corina/corina34_cracker 3.40 0067  02.08.2006

@<TRIPOS>MOLECULE
ASD05430265
  68   73    0    0    0
SMALL
NO_CHARGES


@<TRIPOS>ATOM
   1 C1             0.0555     1.1845     0.3901 C.ar    
   2 C2             0.0203    -0.0139    -0.3219 C.ar    
   3 C3             1.1706    -0.4971    -0.9320 C.ar    
   4 C4             2.3524     0.2051    -0.8364 C.ar    
   5 C5             2.3953     1.4081    -0.1238 C.ar    
   6 C6             1.2371     1.8946     0.4901 C.ar    
   7 C7             4.8679    -0.0045     0.2172 C.3     
   8 C8             4.8285     1.4999     0.0679 C.2     
   9 C9             3.6566     2.1594    -0.0200 C.2     
  10 C10            6.2152    -0.4399     0.7876 C.3     
  11 C11            6.8750     0.5920     1.7018 C.3     
  12 N12            7.0883     1.8291     0.9482 N.pl3   
  13 C13            6.1101     2.2204     0.0221 C.2     
  14 N14           -1.1792    -0.7331    -0.4217 N.pl3   
  15 C15           -1.7436    -1.2207    -1.5718 C.2     
  16 C16           -2.8832    -1.8428    -1.2139 C.2     
  17 N17           -3.0157    -1.7408     0.1169 N.2     
  18 C18           -1.9982    -1.0833     0.6035 C.2     
  19 C19           -3.8436    -2.5339    -2.1472 C.3     
  20 O20           -1.0738     1.6572     0.9813 O.3     
  21 C21           -0.9651     2.8907     1.6945 C.3     
  22 C22            8.2661     2.6694     1.1576 C.3     
  23 C23            8.7527     3.1867    -0.2009 C.3     
  24 N24            7.6179     3.7300    -0.9512 N.pl3   
  25 N25            6.3481     3.1501    -0.8480 N.2     
  26 C26            7.8142     4.8939    -1.8190 C.3     
  27 C27            7.9042     3.8349     2.0416 C.ar    
  28 C28            8.7861     4.2622     3.0168 C.ar    
  29 C29            8.4555     5.3312     3.8278 C.ar    
  30 C30            7.2404     5.9744     3.6633 C.ar    
  31 C31            6.3580     5.5456     2.6864 C.ar    
  32 C32            6.6930     4.4797     1.8731 C.ar    
  33 F33            6.9160     7.0193     4.4559 F       
  34 C34            6.1871    -1.8509     1.3946 C.3     
  35 C35            7.5681    -2.0679     0.7531 C.3     
  36 C36            7.1707    -0.9981    -0.2781 C.3     
  37 H37            1.1388    -1.4257    -1.4825 H       
  38 H38            3.2454    -0.1734    -1.3113 H       
  39 H39            1.2657     2.8230     1.0413 H       
  40 H40            4.0711    -0.3220     0.8897 H       
  41 H41            4.7214    -0.4684    -0.7582 H       
  42 H42            3.6429     3.2393    -0.0142 H       
  43 H43            6.2261     0.7917     2.5546 H       
  44 H44            7.8332     0.2088     2.0527 H       
  45 H45           -1.3502    -1.1240    -2.5730 H       
  46 H46           -1.8385    -0.8502     1.6459 H       
  47 H47           -3.5575    -3.5804    -2.2533 H       
  48 H48           -4.8530    -2.4727    -1.7406 H       
  49 H49           -3.8148    -2.0487    -3.1228 H       
  50 H50           -1.9353     3.1534     2.1161 H       
  51 H51           -0.2369     2.7827     2.4984 H       
  52 H52           -0.6401     3.6770     1.0131 H       
  53 H53            9.0546     2.0823     1.6285 H       
  54 H54            9.4949     3.9699    -0.0469 H       
  55 H55            9.2006     2.3670    -0.7627 H       
  56 H56            8.0841     4.5590    -2.8205 H       
  57 H57            6.8913     5.4721    -1.8656 H       
  58 H58            8.6131     5.5167    -1.4165 H       
  59 H59            9.7337     3.7601     3.1451 H       
  60 H60            9.1444     5.6646     4.5897 H       
  61 H61            5.4099     6.0466     2.5572 H       
  62 H62            6.0048     4.1450     1.1109 H       
  63 H63            6.2058    -1.8579     2.4844 H       
  64 H64            5.4075    -2.4895     0.9794 H       
  65 H65            8.3985    -1.7700     1.3933 H       
  66 H66            7.6987    -3.0611     0.3236 H       
  67 H67            6.6612    -1.4026    -1.1527 H       
  68 H68            7.9822    -0.3178    -0.5365 H       
@<TRIPOS>BOND
   1    1    2 ar
   2    1    6 ar
   3    1   20 1
   4    2    3 ar
   5    2   14 1
   6    3    4 ar
   7    3   37 1
   8    4    5 ar
   9    4   38 1
  10    5    6 ar
  11    5    9 1
  12    6   39 1
  13    7    8 1
  14    7   10 1
  15    7   40 1
  16    7   41 1
  17    8    9 2
  18    8   13 1
  19    9   42 1
  20   10   11 1
  21   10   34 1
  22   10   36 1
  23   11   12 1
  24   11   43 1
  25   11   44 1
  26   12   13 1
  27   12   22 1
  28   13   25 2
  29   14   15 1
  30   14   18 1
  31   15   16 2
  32   15   45 1
  33   16   17 1
  34   16   19 1
  35   17   18 2
  36   18   46 1
  37   19   47 1
  38   19   48 1
  39   19   49 1
  40   20   21 1
  41   21   50 1
  42   21   51 1
  43   21   52 1
  44   22   23 1
  45   22   27 1
  46   22   53 1
  47   23   24 1
  48   23   54 1
  49   23   55 1
  50   24   25 1
  51   24   26 1
  52   26   56 1
  53   26   57 1
  54   26   58 1
  55   27   28 ar
  56   27   32 ar
  57   28   29 ar
  58   28   59 1
  59   29   30 ar
  60   29   60 1
  61   30   31 ar
  62   30   33 1
  63   31   32 ar
  64   31   61 1
  65   32   62 1
  66   34   35 1
  67   34   63 1
  68   34   64 1
  69   35   36 1
  70   35   65 1
  71   35   66 1
  72   36   67 1
  73   36   68 1

#	End of record

