#	Name: ASD00960077
#	Creating user name:	WinNT
#	Creation time:	15. 06. 2019 18:53

#	Modifying user name:	WinNT
#	Modification time:	15. 06. 2019 18:53

#	Program:	/corina/corina34_cracker 3.40 0067  02.08.2006

@<TRIPOS>MOLECULE
ASD00960077
  37   39    0    0    0
SMALL
NO_CHARGES


@<TRIPOS>ATOM
   1 F1             0.0021    -0.0041     0.0020 F       
   2 C2            -0.0169     1.3948     0.0097 C.3     
   3 C3            -0.8154     1.9319    -1.1987 C.3     
   4 O4            -1.5172     3.0883    -0.6926 O.3     
   5 C5            -1.9722     2.7107     0.6250 C.3     
   6 C6            -2.2694     3.9559     1.4630 C.3     
   7 C7             0.1205     2.3312    -2.3103 C.2     
   8 C8             0.6235     1.4933    -3.2484 C.2     
   9 N9             0.5843     3.5839    -2.5297 N.pl3   
  10 C10            1.4126     3.5627    -3.6326 C.2     
  11 C11            1.4514     2.2490    -4.1028 C.2     
  12 N12            0.3809     4.8076    -1.8753 N.2     
  13 C13            0.9684     5.8879    -2.3128 C.2     
  14 N14            1.7693     5.8799    -3.3760 N.2     
  15 C15            2.0148     4.7671    -4.0498 C.2     
  16 O16           -3.3868     4.6501     0.9048 O.3     
  17 N17            2.8497     4.7862    -5.1498 N.pl3   
  18 C18            2.1872     1.7645    -5.2317 C.1     
  19 C19            2.7905     1.3672    -6.1571 C.1     
  20 C20           -0.7923     1.9190     1.2391 C.3     
  21 C21            1.4092     1.9490    -0.0009 C.3     
  22 O22           -1.2765     0.8296     2.0270 O.3     
  23 *23           -1.4680     1.1464     3.3875 Du      
  24 H24           -1.5239     1.1814    -1.5492 H       
  25 H25           -2.8581     2.0797     0.5542 H       
  26 H26           -2.5003     3.6588     2.4860 H       
  27 H27           -1.3979     4.6105     1.4627 H       
  28 H28            0.4257     0.4345    -3.3272 H       
  29 H29            0.7987     6.8202    -1.7947 H       
  30 H30           -3.6321     5.4520     1.3864 H       
  31 H31            3.2601     5.6183    -5.4328 H       
  32 H32            3.0258     3.9675    -5.6393 H       
  33 H33            3.3301     1.0120    -6.9849 H       
  34 H34           -0.1629     2.5758     1.8396 H       
  35 H35            1.9214     1.6166    -0.9039 H       
  36 H36            1.3758     3.0383     0.0178 H       
  37 H37            1.9463     1.5868     0.8757 H       
@<TRIPOS>BOND
   1    1    2 1
   2    2   21 1
   3    2    3 1
   4    2   20 1
   5    3    4 1
   6    3    7 1
   7    3   24 1
   8    4    5 1
   9    5   20 1
  10    5    6 1
  11    5   25 1
  12    6   16 1
  13    6   26 1
  14    6   27 1
  15    7    8 2
  16    7    9 1
  17    8   11 1
  18    8   28 1
  19    9   10 1
  20    9   12 1
  21   10   11 2
  22   10   15 1
  23   11   18 1
  24   12   13 2
  25   13   14 1
  26   13   29 1
  27   14   15 2
  28   15   17 1
  29   16   30 1
  30   17   31 1
  31   17   32 1
  32   18   19 3
  33   19   33 1
  34   20   22 1
  35   20   34 1
  36   21   35 1
  37   21   36 1
  38   21   37 1
  39   22   23 1

#	End of record

