#	Name: ASD00238001
#	Creating user name:	WinNT
#	Creation time:	15. 06. 2019 18:33

#	Modifying user name:	WinNT
#	Modification time:	15. 06. 2019 18:33

#	Program:	/corina/corina34_cracker 3.40 0067  02.08.2006

@<TRIPOS>MOLECULE
ASD00238001
  32   31    0    0    0
SMALL
NO_CHARGES


@<TRIPOS>ATOM
   1 N1            -0.0178     1.4648     0.0101 N.4     
   2 C2             0.0021    -0.0041     0.0020 C.3     
   3 C3             0.7421    -0.5109     1.2415 C.3     
   4 C4             1.3603     1.9732    -0.0003 C.3     
   5 C5            -0.7283     1.9514    -1.1800 C.3     
   6 C6            -0.7054     1.9385     1.2187 C.3     
   7 S7             0.7666    -2.3207     1.2316 S.3     
   8 C8             1.6275    -2.6143     2.6820 C.2     
   9 O9             2.0112    -1.6833     3.3588 O.2     
  10 C10            1.9086    -4.0292     3.1181 C.3     
  11 C11            2.6859    -4.0118     4.4358 C.3     
  12 C12            2.9714    -5.4482     4.8786 C.3     
  13 H13           -1.0205    -0.3814     0.0098 H       
  14 H14            0.5123    -0.3556    -0.8948 H       
  15 H15            1.7647    -0.1336     1.2338 H       
  16 H16            0.2319    -0.1594     2.1383 H       
  17 H17            1.8705     1.6217    -0.8971 H       
  18 H18            1.3455     3.0631     0.0057 H       
  19 H19            1.8875     1.6122     0.8827 H       
  20 H20           -1.7509     1.5741    -1.1723 H       
  21 H21           -0.7431     3.0413    -1.1740 H       
  22 H22           -0.2181     1.5999    -2.0768 H       
  23 H23           -0.1782     1.5774     2.1018 H       
  24 H24           -0.7202     3.0284     1.2247 H       
  25 H25           -1.7280     1.5612     1.2264 H       
  26 H26            0.9670    -4.5599     3.2587 H       
  27 H27            2.4998    -4.5342     2.3542 H       
  28 H28            3.6275    -3.4810     4.2952 H       
  29 H29            2.0948    -3.5068     5.1997 H       
  30 H30            3.5625    -5.9532     4.1147 H       
  31 H31            3.5252    -5.4358     5.8173 H       
  32 H32            2.0298    -5.9790     5.0192 H       
@<TRIPOS>BOND
   1    1    2 1
   2    1    4 1
   3    1    5 1
   4    1    6 1
   5    2    3 1
   6    2   13 1
   7    2   14 1
   8    3    7 1
   9    3   15 1
  10    3   16 1
  11    4   17 1
  12    4   18 1
  13    4   19 1
  14    5   20 1
  15    5   21 1
  16    5   22 1
  17    6   23 1
  18    6   24 1
  19    6   25 1
  20    7    8 1
  21    8    9 2
  22    8   10 1
  23   10   11 1
  24   10   26 1
  25   10   27 1
  26   11   12 1
  27   11   28 1
  28   11   29 1
  29   12   30 1
  30   12   31 1
  31   12   32 1

#	End of record

