#	Name: ASD02032001
#	Creating user name:	WinNT
#	Creation time:	15. 06. 2019 20:16

#	Modifying user name:	WinNT
#	Modification time:	15. 06. 2019 20:16

#	Program:	/corina/corina34_cracker 3.40 0067  02.08.2006

@<TRIPOS>MOLECULE
ASD02032001
  18   17    0    0    0
SMALL
NO_CHARGES


@<TRIPOS>ATOM
   1 C1            -0.0184     1.5028     0.0103 C.2     
   2 N2             1.3748    -0.4764     0.2269 N.3     
   3 C3             0.0021    -0.0041     0.0020 C.3     
   4 C4            -0.4972    -0.5134    -1.3515 C.3     
   5 C5            -0.5935    -2.0170    -1.3180 C.2     
   6 O6            -0.2934    -2.6194    -0.3145 O.2     
   7 O7            -1.0124    -2.6871    -2.4030 O.3     
   8 O8             1.0291     2.1267     0.0037 O.co2   
   9 O9            -1.0824     2.0980     0.0186 O.co2   
  10 C10            1.6801    -0.5430     1.6623 C.3     
  11 H11            1.5271    -1.3696    -0.2170 H       
  12 H12           -0.6460    -0.3806     0.7935 H       
  13 H13           -1.4805    -0.0910    -1.5585 H       
  14 H14            0.1999    -0.2113    -2.1331 H       
  15 H15           -1.0577    -3.6505    -2.3337 H       
  16 H16            0.9894    -1.2315     2.1491 H       
  17 H17            2.7022    -0.8955     1.8003 H       
  18 H18            1.5752     0.4487     2.1024 H       
@<TRIPOS>BOND
   1    1    3 1
   2    1    8 ar
   3    1    9 ar
   4    2   10 1
   5    2    3 1
   6    2   11 1
   7    3    4 1
   8    3   12 1
   9    4    5 1
  10    4   13 1
  11    4   14 1
  12    5    6 2
  13    5    7 1
  14    7   15 1
  15   10   16 1
  16   10   17 1
  17   10   18 1

#	End of record

