#	Name: ASD03740036
#	Creating user name:	WinNT
#	Creation time:	15. 06. 2019 20:46

#	Modifying user name:	WinNT
#	Modification time:	15. 06. 2019 20:46

#	Program:	/corina/corina34_cracker 3.40 0067  02.08.2006

@<TRIPOS>MOLECULE
ASD03740036
  28   29    0    0    0
SMALL
NO_CHARGES


@<TRIPOS>ATOM
   1 O1            -0.0164     1.3546     0.0095 O.3     
   2 C2             0.0021    -0.0041     0.0020 C.ar    
   3 C3             1.1755     2.0093     0.0016 C.ar    
   4 C4            -1.1893    -0.7154     0.0096 C.ar    
   5 C5            -1.1678    -2.0965     0.0015 C.ar    
   6 C6             0.0396    -2.7703    -0.0142 C.ar    
   7 C7             1.2282    -2.0639    -0.0213 C.ar    
   8 C8             1.2123    -0.6827    -0.0190 C.ar    
   9 C9             1.7738     2.3507    -1.2039 C.ar    
  10 C10            2.9868     3.0168    -1.2084 C.ar    
  11 C11            3.6027     3.3424    -0.0144 C.ar    
  12 C12            3.0097     3.0034     1.1879 C.ar    
  13 C13            1.7942     2.3429     1.1995 C.ar    
  14 C14            3.6853     3.3595     2.4871 C.3     
  15 N15            4.3797     2.1787     3.0176 N.3     
  16 F16            1.1727     2.0324    -2.3712 F       
  17 F17            1.2155     2.0121     2.3745 F       
  18 H18           -2.1327    -0.1896     0.0221 H       
  19 H19           -2.0948    -2.6506     0.0077 H       
  20 H20            0.0542    -3.8502    -0.0205 H       
  21 H21            2.1699    -2.5926    -0.0327 H       
  22 H22            2.1410    -0.1314    -0.0248 H       
  23 H23            3.4529     3.2824    -2.1457 H       
  24 H24            4.5493     3.8623    -0.0206 H       
  25 H25            4.4066     4.1582     2.3146 H       
  26 H26            2.9372     3.6944     3.2057 H       
  27 H27            4.8411     2.3918     3.8893 H       
  28 H28            3.7434     1.4031     3.1255 H       
@<TRIPOS>BOND
   1    1    2 1
   2    1    3 1
   3    2    4 ar
   4    2    8 ar
   5    3    9 ar
   6    3   13 ar
   7    4    5 ar
   8    4   18 1
   9    5    6 ar
  10    5   19 1
  11    6    7 ar
  12    6   20 1
  13    7    8 ar
  14    7   21 1
  15    8   22 1
  16    9   10 ar
  17    9   16 1
  18   10   11 ar
  19   10   23 1
  20   11   12 ar
  21   11   24 1
  22   12   13 ar
  23   12   14 1
  24   13   17 1
  25   14   15 1
  26   14   25 1
  27   14   26 1
  28   15   27 1
  29   15   28 1

#	End of record

