#	Name: ASD07300379
#	Creating user name:	WinNT
#	Creation time:	15. 06. 2019 21:09

#	Modifying user name:	WinNT
#	Modification time:	15. 06. 2019 21:09

#	Program:	/corina/corina34_cracker 3.40 0067  02.08.2006

@<TRIPOS>MOLECULE
ASD07300379
  49   53    0    0    0
SMALL
NO_CHARGES


@<TRIPOS>ATOM
   1 C1             0.7158     1.8296     0.7637 C.ar    
   2 C2             0.9390     0.4569     0.7605 C.ar    
   3 C3             2.1802    -0.0463     1.0816 C.ar    
   4 C4             3.1912     0.8515     1.4052 C.ar    
   5 C5             2.9118     2.2038     1.3918 C.ar    
   6 N6             1.7129     2.6512     1.0794 N.ar    
   7 N7            -0.6049     2.1000     0.4158 N.am    
   8 C8            -0.3682    -0.1884     0.3671 C.3     
   9 C9            -1.3089     0.9820     0.1715 C.2     
  10 O10           -2.4767     0.9218    -0.1501 O.2     
  11 C11           -1.1401     3.3931     0.3306 C.ar    
  12 C12           -0.3397     4.4951     0.6005 C.ar    
  13 C13           -0.8671     5.7683     0.5159 C.ar    
  14 C14           -2.1966     5.9466     0.1613 C.ar    
  15 C15           -2.9970     4.8457    -0.1080 C.ar    
  16 C16           -2.4691     3.5723    -0.0293 C.ar    
  17 O17           -2.7155     7.2006     0.0782 O.3     
  18 C18           -2.4009     7.9475    -1.0048 C.2     
  19 N19           -1.7098     7.5265    -2.0321 N.2     
  20 C20           -1.5792     8.5316    -2.9373 C.ar    
  21 C21           -2.2471     9.6499    -2.4108 C.ar    
  22 N22           -2.7625     9.2499    -1.1898 N.pl3   
  23 C23           -0.9533     8.6277    -4.1822 C.ar    
  24 C24           -0.9967     9.8142    -4.8797 C.ar    
  25 C25           -1.6574    10.9151    -4.3555 C.ar    
  26 C26           -2.2804    10.8367    -3.1269 C.ar    
  27 C27           -3.5477    10.0729    -0.2666 C.3     
  28 C28           -0.2062    -0.9800    -0.9322 C.3     
  29 C29           -0.8783    -1.0948     1.4892 C.3     
  30 H30            2.3632    -1.1106     1.0822 H       
  31 H31            4.1783     0.4973     1.6630 H       
  32 H32            3.6914     2.9082     1.6419 H       
  33 H33            0.6951     4.3564     0.8768 H       
  34 H34           -0.2448     6.6256     0.7261 H       
  35 H35           -4.0320     4.9850    -0.3833 H       
  36 H36           -3.0908     2.7157    -0.2437 H       
  37 H37           -0.4367     7.7744    -4.5963 H       
  38 H38           -0.5123     9.8882    -5.8421 H       
  39 H39           -1.6841    11.8400    -4.9125 H       
  40 H40           -2.7932    11.6977    -2.7242 H       
  41 H41           -2.8774    10.5833     0.4250 H       
  42 H42           -4.1169    10.8107    -0.8320 H       
  43 H43           -4.2329     9.4371     0.2940 H       
  44 H44            0.5445    -1.7578    -0.7926 H       
  45 H45           -1.1585    -1.4378    -1.1998 H       
  46 H46            0.1108    -0.3081    -1.7298 H       
  47 H47           -1.0331    -0.5037     2.3918 H       
  48 H48           -1.8211    -1.5511     1.1875 H       
  49 H49           -0.1440    -1.8755     1.6878 H       
@<TRIPOS>BOND
   1    1    2 ar
   2    1    6 ar
   3    1    7 1
   4    2    3 ar
   5    2    8 1
   6    3    4 ar
   7    3   30 1
   8    4    5 ar
   9    4   31 1
  10    5    6 ar
  11    5   32 1
  12    7    9 am
  13    7   11 1
  14    8    9 1
  15    8   28 1
  16    8   29 1
  17    9   10 2
  18   11   12 ar
  19   11   16 ar
  20   12   13 ar
  21   12   33 1
  22   13   14 ar
  23   13   34 1
  24   14   15 ar
  25   14   17 1
  26   15   16 ar
  27   15   35 1
  28   16   36 1
  29   17   18 1
  30   18   19 2
  31   18   22 1
  32   19   20 1
  33   20   21 ar
  34   20   23 ar
  35   21   22 1
  36   21   26 ar
  37   22   27 1
  38   23   24 ar
  39   23   37 1
  40   24   25 ar
  41   24   38 1
  42   25   26 ar
  43   25   39 1
  44   26   40 1
  45   27   41 1
  46   27   42 1
  47   27   43 1
  48   28   44 1
  49   28   45 1
  50   28   46 1
  51   29   47 1
  52   29   48 1
  53   29   49 1

#	End of record

