#	Name: ASD01720172
#	Creating user name:	WinNT
#	Creation time:	15. 06. 2019 19:23

#	Modifying user name:	WinNT
#	Modification time:	15. 06. 2019 19:23

#	Program:	/corina/corina34_cracker 3.40 0067  02.08.2006

@<TRIPOS>MOLECULE
ASD01720172
  46   48    0    0    0
SMALL
NO_CHARGES


@<TRIPOS>ATOM
   1 C1            -0.6127     1.7872     0.7773 C.ar    
   2 N2            -0.7354     0.4928     1.0294 N.ar    
   3 C3             0.3108    -0.3170     0.9566 C.ar    
   4 N4             1.5142     0.1302     0.6316 N.ar    
   5 C5             1.7091     1.4173     0.3660 C.ar    
   6 C6             0.6263     2.2945     0.4340 C.ar    
   7 N7             2.9738     1.8834     0.0256 N.am    
   8 C8             3.3621     3.2976    -0.0889 C.3     
   9 C9             4.8501     3.2386    -0.4847 C.3     
  10 O10            5.1412     1.8125    -0.5510 O.3     
  11 C11            4.0394     1.1178    -0.2462 C.2     
  12 N12            0.1418    -1.6637     1.2274 N.pl3   
  13 C13           -1.1815    -2.1777     1.5892 C.3     
  14 C14           -1.0262    -3.4383     2.4003 C.ar    
  15 C15           -1.9748    -2.4841     0.3173 C.3     
  16 C16           -1.8526    -3.6688     3.4840 C.ar    
  17 C17           -1.7110    -4.8253     4.2284 C.ar    
  18 C18           -0.7428    -5.7513     3.8894 C.ar    
  19 C19            0.0847    -5.5211     2.8046 C.ar    
  20 C20           -0.0612    -4.3665     2.0568 C.ar    
  21 C21            3.1908     4.0122     1.2531 C.3     
  22 C22            4.0519     3.3213     2.3124 C.3     
  23 C23            3.6280     5.4718     1.1130 C.3     
  24 O24            4.0070    -0.0965    -0.2214 O.2     
  25 Cl25           1.3015    -6.6837     2.3785 Cl      
  26 H26           -1.4723     2.4385     0.8349 H       
  27 H27            0.7535     3.3461     0.2235 H       
  28 H28            2.7789     3.7932    -0.8650 H       
  29 H29            5.0057     3.7060    -1.4570 H       
  30 H30            5.4669     3.7195     0.2746 H       
  31 H31            0.8996    -2.2672     1.1777 H       
  32 H32           -1.7132    -1.4301     2.1778 H       
  33 H33           -2.9594    -2.8665     0.5865 H       
  34 H34           -2.0871    -1.5723    -0.2694 H       
  35 H35           -1.4431    -3.2317    -0.2713 H       
  36 H36           -2.6089    -2.9451     3.7497 H       
  37 H37           -2.3570    -5.0049     5.0751 H       
  38 H38           -0.6319    -6.6544     4.4714 H       
  39 H39            0.5844    -4.1863     1.2100 H       
  40 H40            2.1439     3.9738     1.5541 H       
  41 H41            5.1052     3.4397     2.0582 H       
  42 H42            3.8603     3.7715     3.2864 H       
  43 H43            3.8035     2.2606     2.3472 H       
  44 H44            4.6972     5.5124     0.9051 H       
  45 H45            3.0806     5.9380     0.2939 H       
  46 H46            3.4177     6.0046     2.0404 H       
@<TRIPOS>BOND
   1    1    2 ar
   2    1    6 ar
   3    1   26 1
   4    2    3 ar
   5    3    4 ar
   6    3   12 1
   7    4    5 ar
   8    5    6 ar
   9    5    7 1
  10    6   27 1
  11    7    8 1
  12    7   11 am
  13    8    9 1
  14    8   21 1
  15    8   28 1
  16    9   10 1
  17    9   29 1
  18    9   30 1
  19   10   11 1
  20   11   24 2
  21   12   13 1
  22   12   31 1
  23   13   14 1
  24   13   15 1
  25   13   32 1
  26   14   16 ar
  27   14   20 ar
  28   15   33 1
  29   15   34 1
  30   15   35 1
  31   16   17 ar
  32   16   36 1
  33   17   18 ar
  34   17   37 1
  35   18   19 ar
  36   18   38 1
  37   19   20 ar
  38   19   25 1
  39   20   39 1
  40   21   22 1
  41   21   23 1
  42   21   40 1
  43   22   41 1
  44   22   42 1
  45   22   43 1
  46   23   44 1
  47   23   45 1
  48   23   46 1

#	End of record

