#	Name: ASD05060016
#	Creating user name:	WinNT
#	Creation time:	15. 06. 2019 20:56

#	Modifying user name:	WinNT
#	Modification time:	15. 06. 2019 20:56

#	Program:	/corina/corina34_cracker 3.40 0067  02.08.2006

@<TRIPOS>MOLECULE
ASD05060016
 120  120    0    0    0
SMALL
NO_CHARGES


@<TRIPOS>ATOM
   1 N1            -0.8501     3.7603     1.1494 N.3     
   2 N2            -0.5639     2.3351     1.1228 N.3     
   3 C3            -1.6494     1.5925     0.4680 C.3     
   4 C4            -2.7321     1.2958     1.4734 C.2     
   5 N5            -4.0361     1.4752     1.1082 N.am    
   6 C6            -5.0373     1.1617     2.1530 C.3     
   7 C7            -6.3142     1.8945     1.8312 C.2     
   8 N8            -7.1141     2.3095     2.8514 N.am    
   9 C9            -8.3502     3.0230     2.4736 C.3     
  10 C10           -8.4345     4.3035     3.2634 C.2     
  11 N11           -8.9211     5.4231     2.6508 N.am    
  12 C12           -8.9753     6.6374     3.4960 C.3     
  13 C13           -8.2497     7.7515     2.7864 C.2     
  14 N14           -7.6167     8.7039     3.5247 N.am    
  15 C15           -6.9224     9.7692     2.7744 C.3     
  16 C16           -5.5049     9.8726     3.2756 C.2     
  17 N17           -4.5594    10.4314     2.4636 N.am    
  18 C18           -3.1921    10.4924     3.0284 C.3     
  19 C19           -2.2383     9.8598     2.0479 C.2     
  20 C20           -1.1805     8.9342     2.5315 C.2     
  21 C21           -0.2287     8.2993     1.5505 C.3     
  22 N22            0.0270     6.9063     1.9680 N.am    
  23 C23            0.1224     5.9804     0.9750 C.2     
  24 C24            0.3801     4.5407     1.3388 C.3     
  25 O25            0.0014     6.3092    -0.1861 O.2     
  26 O26           -1.0835     8.6912     3.7107 O.2     
  27 O27           -2.3337    10.1047     0.8690 O.2     
  28 O28           -5.2093     9.4675     4.3799 O.2     
  29 O29           -8.2297     7.7986     1.5747 O.2     
  30 O30           -8.0765     4.3395     4.4216 O.2     
  31 O31           -6.6251     2.1112     0.6791 O.2     
  32 O32           -2.4508     0.9045     2.5863 O.2     
  33 C33           -8.3198     3.3442     0.9780 C.3     
  34 C34           -2.7969    11.9521     3.2606 C.3     
  35 C35           -3.7032    12.5616     4.3322 C.3     
  36 C36           -3.4572    11.8582     5.6685 C.3     
  37 C37           -3.3917    14.0526     4.4758 C.3     
  38 C38           -2.2280     2.4339    -0.6714 C.3     
  39 C39           -1.2015     2.5372    -1.8012 C.3     
  40 C40           -1.8745     3.1078    -3.0512 C.3     
  41 C41           -0.0599     3.4603    -1.3702 C.3     
  42 C42            0.8183     4.4549     2.8022 C.3     
  43 O43            1.1854     3.1089     3.1114 O.3     
  44 C44           -5.3016    -0.3451     2.1754 C.3     
  45 C45           -4.0294    -1.0797     2.6029 C.3     
  46 C46           -4.2937    -2.5866     2.6253 C.3     
  47 C47           -3.0215    -3.3212     3.0527 C.3     
  48 N48           -3.2752    -4.7680     3.0742 N.3     
  49 C49           -6.9152     9.4250     1.2836 C.3     
  50 C50           -6.1417     8.1500     1.0662 C.2     
  51 O51           -5.6451     7.5735     2.0106 O.2     
  52 N52           -6.0017     7.6505    -0.1777 N.am    
  53 C53          -11.1302     5.9674     4.5240 C.2     
  54 C54          -10.4339     7.0388     3.7250 C.3     
  55 O55          -10.5223     4.9837     4.8743 O.2     
  56 O56          -12.4258     6.1059     4.8464 O.3     
  57 C57           -2.0749     7.4305     0.1412 C.2     
  58 C58           -0.8509     8.3095     0.1527 C.3     
  59 O59           -2.4748     6.9381     1.1696 O.2     
  60 O60           -2.7209     7.1945    -1.0115 O.3     
  61 H61           -1.3352     4.0475     0.3126 H       
  62 H62            0.3211     2.1523     0.6741 H       
  63 H63           -1.2594     0.6570     0.0672 H       
  64 H64           -4.2888     1.7862     0.2249 H       
  65 H65           -4.6650     1.4849     3.1251 H       
  66 H66           -6.8840     2.1445     3.7792 H       
  67 H67           -9.2152     2.3985     2.6972 H       
  68 H68           -9.2109     5.4228     1.7251 H       
  69 H69           -8.4935     6.4385     4.4533 H       
  70 H70           -7.6212     8.6836     4.4945 H       
  71 H71           -7.4348    10.7187     2.9295 H       
  72 H72           -4.7692    10.7652     1.5774 H       
  73 H73           -3.1614     9.9477     3.9721 H       
  74 H74            0.7088     8.8552     1.5391 H       
  75 H75            0.1224     6.6635     2.9023 H       
  76 H76            1.1668     4.1396     0.6997 H       
  77 H77           -8.4021     2.4200     0.4061 H       
  78 H78           -9.1542     4.0004     0.7303 H       
  79 H79           -7.3814     3.8412     0.7322 H       
  80 H80           -1.7597    11.9994     3.5922 H       
  81 H81           -2.9070    12.5106     2.3311 H       
  82 H82           -4.7459    12.4346     4.0413 H       
  83 H83           -2.4145    11.9851     5.9594 H       
  84 H84           -4.1029    12.2923     6.4318 H       
  85 H85           -3.6792    10.7959     5.5661 H       
  86 H86           -3.5669    14.5537     3.5238 H       
  87 H87           -4.0373    14.4868     5.2392 H       
  88 H88           -2.3489    14.1796     4.7667 H       
  89 H89           -3.1356     1.9615    -1.0472 H       
  90 H90           -2.4639     3.4320    -0.3024 H       
  91 H91           -0.8039     1.5468    -2.0226 H       
  92 H92           -2.2720     4.0983    -2.8297 H       
  93 H93           -1.1432     3.1814    -3.8561 H       
  94 H94           -2.6877     2.4502    -3.3582 H       
  95 H95            0.5040     2.9892    -0.5652 H       
  96 H96            0.6003     3.6421    -2.2183 H       
  97 H97           -0.4708     4.4073    -1.0202 H       
  98 H98            1.6734     5.1111     2.9644 H       
  99 H99           -0.0045     4.7643     3.4466 H       
 100 H100           1.4746     2.9801     4.0251 H       
 101 H101          -6.1020    -0.5631     2.8824 H       
 102 H102          -5.5958    -0.6772     1.1798 H       
 103 H103          -3.2289    -0.8617     1.8958 H       
 104 H104          -3.7352    -0.7476     3.5985 H       
 105 H105          -5.0941    -2.8046     3.3323 H       
 106 H106          -4.5879    -2.9187     1.6296 H       
 107 H107          -2.2210    -3.1032     2.3457 H       
 108 H108          -2.7273    -2.9891     4.0483 H       
 109 H109          -3.6116    -5.0894     2.1789 H       
 110 H110          -2.4494    -5.2758     3.3538 H       
 111 H111          -7.9398     9.2920     0.9365 H       
 112 H112          -6.4448    10.2349     0.7260 H       
 113 H113          -6.3989     8.1117    -0.9331 H       
 114 H114          -5.5039     6.8299    -0.3177 H       
 115 H115         -10.4699     7.9810     4.2718 H       
 116 H116         -10.9334     7.1574     2.7635 H       
 117 H117         -12.8291     5.3925     5.3599 H       
 118 H118          -1.1329     9.3286    -0.1120 H       
 119 H119          -0.1268     7.9335    -0.5701 H       
 120 H120          -3.5009     6.6245    -0.9689 H       
@<TRIPOS>BOND
   1    1    2 1
   2    1   24 1
   3    1   61 1
   4    2    3 1
   5    2   62 1
   6    3    4 1
   7    3   38 1
   8    3   63 1
   9    4    5 am
  10    4   32 2
  11    5    6 1
  12    5   64 1
  13    6    7 1
  14    6   44 1
  15    6   65 1
  16    7    8 am
  17    7   31 2
  18    8    9 1
  19    8   66 1
  20    9   10 1
  21    9   33 1
  22    9   67 1
  23   10   11 am
  24   10   30 2
  25   11   12 1
  26   11   68 1
  27   12   13 1
  28   12   54 1
  29   12   69 1
  30   13   14 am
  31   13   29 2
  32   14   15 1
  33   14   70 1
  34   15   16 1
  35   15   49 1
  36   15   71 1
  37   16   17 am
  38   16   28 2
  39   17   18 1
  40   17   72 1
  41   18   19 1
  42   18   34 1
  43   18   73 1
  44   19   20 1
  45   19   27 2
  46   20   21 1
  47   20   26 2
  48   21   22 1
  49   21   58 1
  50   21   74 1
  51   22   23 am
  52   22   75 1
  53   23   24 1
  54   23   25 2
  55   24   42 1
  56   24   76 1
  57   33   77 1
  58   33   78 1
  59   33   79 1
  60   34   35 1
  61   34   80 1
  62   34   81 1
  63   35   36 1
  64   35   37 1
  65   35   82 1
  66   36   83 1
  67   36   84 1
  68   36   85 1
  69   37   86 1
  70   37   87 1
  71   37   88 1
  72   38   39 1
  73   38   89 1
  74   38   90 1
  75   39   40 1
  76   39   41 1
  77   39   91 1
  78   40   92 1
  79   40   93 1
  80   40   94 1
  81   41   95 1
  82   41   96 1
  83   41   97 1
  84   42   43 1
  85   42   98 1
  86   42   99 1
  87   43  100 1
  88   44   45 1
  89   44  101 1
  90   44  102 1
  91   45   46 1
  92   45  103 1
  93   45  104 1
  94   46   47 1
  95   46  105 1
  96   46  106 1
  97   47   48 1
  98   47  107 1
  99   47  108 1
 100   48  109 1
 101   48  110 1
 102   49   50 1
 103   49  111 1
 104   49  112 1
 105   50   51 2
 106   50   52 am
 107   52  113 1
 108   52  114 1
 109   53   54 1
 110   53   55 2
 111   53   56 1
 112   54  115 1
 113   54  116 1
 114   56  117 1
 115   57   58 1
 116   57   59 2
 117   57   60 1
 118   58  118 1
 119   58  119 1
 120   60  120 1

#	End of record

