#	Name: ASD07930099
#	Creating user name:	WinNT
#	Creation time:	15. 06. 2019 21:11

#	Modifying user name:	WinNT
#	Modification time:	15. 06. 2019 21:11

#	Program:	/corina/corina34_cracker 3.40 0067  02.08.2006

@<TRIPOS>MOLECULE
ASD07930099
  29   29    0    0    0
SMALL
NO_CHARGES


@<TRIPOS>ATOM
   1 C1            -0.0178     1.4626     0.0101 C.2     
   2 C2             0.0021    -0.0041     0.0020 C.2     
   3 C3             1.2250    -0.6534    -0.0131 C.2     
   4 C4             2.4003     0.1058    -0.0203 C.2     
   5 C5             2.3440     1.4777    -0.0124 C.2     
   6 N6             1.1464     2.1412     0.0026 N.am    
   7 C7            -2.7873    -2.2901     1.0636 C.ar    
   8 C8            -1.5997    -1.5889     1.0975 C.ar    
   9 C9            -1.2610    -0.7753     0.0104 C.ar    
  10 C10           -2.1504    -0.7108    -1.0686 C.ar    
  11 C11           -3.3164    -1.4457    -1.0188 C.ar    
  12 N12           -3.5974    -2.2008     0.0263 N.ar    
  13 C13            3.6005     2.2532    -0.0197 C.2     
  14 O14            4.6698     1.6770    -0.0326 O.2     
  15 O15            3.5610     3.6003    -0.0121 O.3     
  16 O16           -1.0786     2.0626     0.0184 O.2     
  17 C17           -3.1614    -3.1748     2.2248 C.3     
  18 H18            1.2710    -1.7324    -0.0190 H       
  19 H19            3.3591    -0.3911    -0.0318 H       
  20 H20            1.1359     3.1111     0.0079 H       
  21 H21           -0.9414    -1.6665     1.9502 H       
  22 H22           -1.9271    -0.0946    -1.9270 H       
  23 H23           -4.0092    -1.4023    -1.8462 H       
  24 H24            4.4093     4.0644    -0.0174 H       
  25 H25           -3.7312    -2.5974     2.9528 H       
  26 H26           -3.7672    -4.0073     1.8669 H       
  27 H27           -2.2563    -3.5598     2.6946 H       
  28 Cl28           9.6698     9.0644     7.9528 Cl      
  29 H29            9.6698    10.4344     7.9528 H       
@<TRIPOS>BOND
   1    1    2 1
   2    1    6 am
   3    1   16 2
   4    2    3 2
   5    2    9 1
   6    3    4 1
   7    3   18 1
   8    4    5 2
   9    4   19 1
  10    5    6 1
  11    5   13 1
  12    6   20 1
  13    7    8 ar
  14    7   12 ar
  15    7   17 1
  16    8    9 ar
  17    8   21 1
  18    9   10 ar
  19   10   11 ar
  20   10   22 1
  21   11   12 ar
  22   11   23 1
  23   13   14 2
  24   13   15 1
  25   15   24 1
  26   17   25 1
  27   17   26 1
  28   17   27 1
  29   28   29 1

#	End of record

