#	Name: ASD03331814
#	Creating user name:	WinNT
#	Creation time:	15. 06. 2019 20:39

#	Modifying user name:	WinNT
#	Modification time:	15. 06. 2019 20:39

#	Program:	/corina/corina34_cracker 3.40 0067  02.08.2006

@<TRIPOS>MOLECULE
ASD03331814
  57   59    0    0    0
SMALL
NO_CHARGES


@<TRIPOS>ATOM
   1 C1             0.0044     1.8918    -0.4556 C.2     
   2 N2             0.0724     0.5469    -0.6750 N.pl3   
   3 C3            -1.1826     0.0462    -0.5327 C.2     
   4 N4            -1.9967     1.0358    -0.2406 N.2     
   5 C5            -1.2905     2.1882    -0.1832 C.2     
   6 C6             1.1983     2.8091    -0.5173 C.3     
   7 N7             2.4142     1.9770    -0.4686 N.3     
   8 C8             2.3503     0.8851    -1.4501 C.3     
   9 C9             1.3156    -0.1560    -1.0037 C.3     
  10 C10            3.6192     2.7934    -0.6670 C.3     
  11 C11           -1.8319     3.5257     0.1161 C.2     
  12 O12           -1.0915     4.4903     0.1391 O.2     
  13 N13           -3.1476     3.6801     0.3644 N.am    
  14 C14           -3.6858     5.0097     0.6619 C.3     
  15 C15           -3.5218     5.3008     2.1314 C.2     
  16 C16           -5.1709     5.0524     0.2962 C.3     
  17 C17           -5.3303     4.8570    -1.2129 C.3     
  18 O18           -3.0061     4.4785     2.8586 O.2     
  19 N19           -3.9482     6.4748     2.6376 N.am    
  20 C20           -3.7888     6.7578     4.0661 C.3     
  21 C21           -1.5682    -1.3743    -0.6823 C.ar    
  22 C22           -0.5950    -2.3726    -0.6335 C.ar    
  23 C23           -0.9591    -3.6962    -0.7730 C.ar    
  24 C24           -2.2875    -4.0356    -0.9617 C.ar    
  25 C25           -3.2603    -3.0481    -1.0112 C.ar    
  26 C26           -2.9072    -1.7205    -0.8669 C.ar    
  27 Cl27          -2.7377    -5.7030    -1.1375 Cl      
  28 C28           -6.8169     4.7529    -1.5594 C.3     
  29 C29           -4.7172     6.0498    -1.9492 C.3     
  30 F30           -4.5554    -3.3856    -1.1960 F       
  31 H31            1.1782     3.3782    -1.4467 H       
  32 H32            1.1838     3.4906     0.3332 H       
  33 H33            2.0635     1.2875    -2.4216 H       
  34 H34            3.3291     0.4120    -1.5298 H       
  35 H35            1.6823    -0.6855    -0.1244 H       
  36 H36            1.1348    -0.8648    -1.8118 H       
  37 H37            3.6802     3.5477     0.1175 H       
  38 H38            4.5015     2.1548    -0.6264 H       
  39 H39            3.5699     3.2836    -1.6393 H       
  40 H40           -3.7381     2.9108     0.3461 H       
  41 H41           -3.1469     5.7582     0.0810 H       
  42 H42           -5.6978     4.2570     0.8232 H       
  43 H43           -5.5883     6.0173     0.5837 H       
  44 H44           -4.8215     3.9420    -1.5165 H       
  45 H45           -4.3607     7.1325     2.0560 H       
  46 H46           -4.3277     6.0093     4.6471 H       
  47 H47           -2.7308     6.7274     4.3267 H       
  48 H48           -4.1892     7.7471     4.2875 H       
  49 H49            0.4423    -2.1097    -0.4871 H       
  50 H50           -0.2057    -4.4691    -0.7353 H       
  51 H51           -3.6646    -0.9516    -0.9054 H       
  52 H52           -6.9277     4.5261    -2.6198 H       
  53 H53           -7.2730     3.9587    -0.9684 H       
  54 H54           -7.3089     5.6998    -1.3370 H       
  55 H55           -3.6581     6.1239    -1.7023 H       
  56 H56           -4.8308     5.9106    -3.0243 H       
  57 H57           -5.2260     6.9647    -1.6455 H       
@<TRIPOS>BOND
   1    1    2 1
   2    1    6 1
   3    1    5 2
   4    2    3 1
   5    2    9 1
   6    3    4 2
   7    3   21 1
   8    4    5 1
   9    5   11 1
  10    6    7 1
  11    6   31 1
  12    6   32 1
  13    7    8 1
  14    7   10 1
  15    8    9 1
  16    8   33 1
  17    8   34 1
  18    9   35 1
  19    9   36 1
  20   10   37 1
  21   10   38 1
  22   10   39 1
  23   11   12 2
  24   11   13 am
  25   13   14 1
  26   13   40 1
  27   14   15 1
  28   14   16 1
  29   14   41 1
  30   15   18 2
  31   15   19 am
  32   16   17 1
  33   16   42 1
  34   16   43 1
  35   17   28 1
  36   17   29 1
  37   17   44 1
  38   19   20 1
  39   19   45 1
  40   20   46 1
  41   20   47 1
  42   20   48 1
  43   21   22 ar
  44   21   26 ar
  45   22   23 ar
  46   22   49 1
  47   23   24 ar
  48   23   50 1
  49   24   25 ar
  50   24   27 1
  51   25   26 ar
  52   25   30 1
  53   26   51 1
  54   28   52 1
  55   28   53 1
  56   28   54 1
  57   29   55 1
  58   29   56 1
  59   29   57 1

#	End of record

