#	Name: ASD01882670
#	Creating user name:	WinNT
#	Creation time:	15. 06. 2019 19:45

#	Modifying user name:	WinNT
#	Modification time:	15. 06. 2019 19:45

#	Program:	/corina/corina34_cracker 3.40 0067  02.08.2006

@<TRIPOS>MOLECULE
ASD01882670
  53   56    0    0    0
SMALL
NO_CHARGES


@<TRIPOS>ATOM
   1 C1             0.7325     1.4200     1.0811 C.2     
   2 C2             0.7681     0.0147     1.0979 C.2     
   3 C3             1.2066    -0.6546    -0.0130 C.2     
   4 C4             1.6135     0.0753    -1.1506 C.2     
   5 C5             1.5712     1.4222    -1.1448 C.2     
   6 N6             1.1358     2.0991    -0.0428 N.pl3   
   7 N7             0.5215     3.5067     1.4678 N.2     
   8 N8             0.3653     2.3319     1.9687 N.2     
   9 C9             0.9860     3.4230     0.2489 C.2     
  10 C10            1.2967     4.5782    -0.6677 C.3     
  11 O11            0.1348     4.9054    -1.4325 O.3     
  12 C12            0.3230     5.9942    -2.3386 C.3     
  13 C13           -0.9783     6.2550    -3.0998 C.3     
  14 N14            1.2514    -2.0467    -0.0204 N.pl3   
  15 C15            2.5331    -2.7538    -0.1467 C.3     
  16 C16            2.4377    -3.7432    -1.3123 C.3     
  17 C17            1.2317    -4.6611    -1.0996 C.3     
  18 C18           -0.0494    -3.8245    -1.0701 C.3     
  19 C19            0.0184    -2.8360     0.1039 C.3     
  20 C20            1.1545    -5.6580    -2.2271 C.ar    
  21 C21            1.0137    -5.2181    -3.5317 C.ar    
  22 C22            0.9432    -6.1335    -4.5678 C.ar    
  23 C23            1.0134    -7.4904    -4.3004 C.ar    
  24 C24            1.1541    -7.9330    -2.9971 C.ar    
  25 C25            1.2301    -7.0165    -1.9584 C.ar    
  26 O26            1.3740    -7.4496    -0.6784 O.3     
  27 C27            1.4450    -8.8624    -0.4757 C.3     
  28 F28            0.9440    -8.3825    -5.3126 F       
  29 F29            0.9447    -3.8946    -3.7943 F       
  30 Cl30           0.2630    -0.8607     2.5093 Cl      
  31 H31            1.9606    -0.4479    -2.0294 H       
  32 H32            1.8851     1.9710    -2.0203 H       
  33 H33            1.5964     5.4422    -0.0745 H       
  34 H34            2.1081     4.3002    -1.3404 H       
  35 H35            0.6025     6.8875    -1.7801 H       
  36 H36            1.1142     5.7456    -3.0460 H       
  37 H37           -1.7694     6.5036    -2.3925 H       
  38 H38           -0.8347     7.0855    -3.7910 H       
  39 H39           -1.2578     5.3616    -3.6583 H       
  40 H40            3.3292    -2.0352    -0.3416 H       
  41 H41            2.7442    -3.2950     0.7756 H       
  42 H42            2.3169    -3.1945    -2.2463 H       
  43 H43            3.3473    -4.3421    -1.3566 H       
  44 H44            1.3412    -5.1911    -0.1534 H       
  45 H45           -0.1467    -3.2750    -2.0064 H       
  46 H46           -0.9099    -4.4812    -0.9419 H       
  47 H47            0.0286    -3.3837     1.0463 H       
  48 H48           -0.8453    -2.1717     0.0744 H       
  49 H49            0.8331    -5.7891    -5.5855 H       
  50 H50            1.2084    -8.9913    -2.7888 H       
  51 H51            2.3000    -9.2649    -1.0189 H       
  52 H52            1.5591    -9.0715     0.5879 H       
  53 H53            0.5300    -9.3284    -0.8415 H       
@<TRIPOS>BOND
   1    1    2 1
   2    1    6 1
   3    1    8 2
   4    2    3 2
   5    2   30 1
   6    3    4 1
   7    3   14 1
   8    4    5 2
   9    4   31 1
  10    5    6 1
  11    5   32 1
  12    6    9 1
  13    7    8 1
  14    7    9 2
  15    9   10 1
  16   10   11 1
  17   10   33 1
  18   10   34 1
  19   11   12 1
  20   12   13 1
  21   12   35 1
  22   12   36 1
  23   13   37 1
  24   13   38 1
  25   13   39 1
  26   14   15 1
  27   14   19 1
  28   15   16 1
  29   15   40 1
  30   15   41 1
  31   16   17 1
  32   16   42 1
  33   16   43 1
  34   17   18 1
  35   17   20 1
  36   17   44 1
  37   18   19 1
  38   18   45 1
  39   18   46 1
  40   19   47 1
  41   19   48 1
  42   20   21 ar
  43   20   25 ar
  44   21   22 ar
  45   21   29 1
  46   22   23 ar
  47   22   49 1
  48   23   24 ar
  49   23   28 1
  50   24   25 ar
  51   24   50 1
  52   25   26 1
  53   26   27 1
  54   27   51 1
  55   27   52 1
  56   27   53 1

#	End of record

