#	Name: ASD08170097
#	Creating user name:	WinNT
#	Creation time:	15. 06. 2019 21:17

#	Modifying user name:	WinNT
#	Modification time:	15. 06. 2019 21:17

#	Program:	/corina/corina34_cracker 3.40 0067  02.08.2006

@<TRIPOS>MOLECULE
ASD08170097
  18   18    0    0    0
SMALL
NO_CHARGES


@<TRIPOS>ATOM
   1 C1            -0.0187     1.5258     0.0104 C.3     
   2 N2            -1.3921    -2.8073     1.0457 N.2     
   3 N3            -1.3680    -5.8099    -0.7731 N.pl3   
   4 N4            -1.3766    -4.0547     0.8612 N.2     
   5 C5            -1.4333    -0.5336     0.0129 C.3     
   6 C6            -1.3825    -4.4833    -0.3686 C.2     
   7 C7             0.0021    -0.0041     0.0020 C.3     
   8 C8            -1.4129    -2.0405     0.0046 C.2     
   9 S9            -1.4124    -3.0717    -1.4276 S.3     
  10 H10            1.0039     1.9031     0.0027 H       
  11 H11           -0.5459     1.8868    -0.8726 H       
  12 H12           -0.5289     1.8773     0.9072 H       
  13 H13           -1.3521    -6.5187    -0.1111 H       
  14 H14           -1.3737    -6.0289    -1.7180 H       
  15 H15           -1.9435    -0.1821     0.9097 H       
  16 H16           -1.9605    -0.1726    -0.8702 H       
  17 H17            0.5123    -0.3556    -0.8948 H       
  18 H18            0.5293    -0.3651     0.8851 H       
@<TRIPOS>BOND
   1    1    7 1
   2    1   10 1
   3    1   11 1
   4    1   12 1
   5    2    4 1
   6    2    8 2
   7    3    6 1
   8    3   13 1
   9    3   14 1
  10    4    6 2
  11    5    7 1
  12    5    8 1
  13    5   15 1
  14    5   16 1
  15    6    9 1
  16    7   17 1
  17    7   18 1
  18    8    9 1

#	End of record

