#	Name: ASD01901268
#	Creating user name:	WinNT
#	Creation time:	15. 06. 2019 19:53

#	Modifying user name:	WinNT
#	Modification time:	15. 06. 2019 19:53

#	Program:	/corina/corina34_cracker 3.40 0067  02.08.2006

@<TRIPOS>MOLECULE
ASD01901268
  43   47    0    0    0
SMALL
NO_CHARGES


@<TRIPOS>ATOM
   1 C1            -0.0133     1.3752    -0.0780 C.ar    
   2 C2             0.0053    -0.0038    -0.0795 C.ar    
   3 C3             1.2070    -0.6831     0.0164 C.ar    
   4 C4             2.3981     0.0145     0.1145 C.ar    
   5 C5             2.3952     1.3936     0.1174 C.ar    
   6 C6             1.1856     2.0865     0.0204 C.ar    
   7 C7             1.1745     3.5185     0.0222 C.1     
   8 C8             1.1654     4.6925     0.0237 C.1     
   9 C9             1.1543     6.1244     0.0256 C.ar    
  10 C10           -0.0148     8.2083    -0.0589 C.ar    
  11 C11           -0.0562     6.8272    -0.0651 C.ar    
  12 C12            2.3483     6.8426     0.1235 C.ar    
  13 N13            2.3412     8.1593     0.1259 N.ar    
  14 C14            1.2161     8.8515     0.0367 C.ar    
  15 N15            1.2645    10.2467     0.0430 N.am    
  16 N16            1.2456    12.2333     1.3147 N.am    
  17 C17            1.2055    10.8888     1.2225 C.2     
  18 C18            1.3745    10.8986    -1.1393 C.2     
  19 C19            1.4230    12.3699    -1.0989 C.ar    
  20 C20            1.3510    12.9686     0.1594 C.ar    
  21 C21            1.3851    14.3301     0.3350 C.ar    
  22 C22            1.5349    13.1865    -2.2208 C.ar    
  23 C23            1.5702    14.5577    -2.0453 C.ar    
  24 C24            1.4909    15.1324    -0.7820 C.ar    
  25 C25            1.1987    13.1699     2.4465 C.3     
  26 O26            1.1124    10.2338     2.2424 O.2     
  27 O27            1.4314    10.2929    -2.1921 O.2     
  28 Cl28          -1.4813     9.1309    -0.1685 Cl      
  29 C29            1.2901    14.5789     1.8210 C.3     
  30 H30           -0.9516     1.9041    -0.1570 H       
  31 H31           -0.9204    -0.5549    -0.1555 H       
  32 H32            1.2154    -1.7631     0.0150 H       
  33 H33            3.3322    -0.5224     0.1894 H       
  34 H34            3.3255     1.9368     0.1947 H       
  35 H35           -0.9971     6.3019    -0.1383 H       
  36 H36            3.2865     6.3128     0.1984 H       
  37 H37            1.5935    12.7571    -3.2100 H       
  38 H38            1.6572    15.1977    -2.9109 H       
  39 H39            1.5200    16.2066    -0.6745 H       
  40 H40            0.2601    13.0585     2.9894 H       
  41 H41            2.0435    12.9979     3.1134 H       
  42 H42            2.1809    15.0960     2.1776 H       
  43 H43            0.3955    15.1566     2.0533 H       
@<TRIPOS>BOND
   1    1    2 ar
   2    1    6 ar
   3    1   30 1
   4    2    3 ar
   5    2   31 1
   6    3    4 ar
   7    3   32 1
   8    4    5 ar
   9    4   33 1
  10    5    6 ar
  11    5   34 1
  12    6    7 1
  13    7    8 3
  14    8    9 1
  15    9   12 ar
  16    9   11 ar
  17   10   11 ar
  18   10   14 ar
  19   10   28 1
  20   11   35 1
  21   12   13 ar
  22   12   36 1
  23   13   14 ar
  24   14   15 1
  25   15   18 am
  26   15   17 am
  27   16   17 am
  28   16   20 1
  29   16   25 1
  30   17   26 2
  31   18   19 1
  32   18   27 2
  33   19   22 ar
  34   19   20 ar
  35   20   21 ar
  36   21   24 ar
  37   21   29 1
  38   22   23 ar
  39   22   37 1
  40   23   24 ar
  41   23   38 1
  42   24   39 1
  43   25   29 1
  44   25   40 1
  45   25   41 1
  46   29   42 1
  47   29   43 1

#	End of record

