#	Name: ASD06660008
#	Creating user name:	WinNT
#	Creation time:	15. 06. 2019 21:07

#	Modifying user name:	WinNT
#	Modification time:	15. 06. 2019 21:07

#	Program:	/corina/corina34_cracker 3.40 0067  02.08.2006

@<TRIPOS>MOLECULE
ASD06660008
  71   74    0    0    0
SMALL
NO_CHARGES


@<TRIPOS>ATOM
   1 C1            -1.4596     1.6372     0.2980 C.2     
   2 C2            -1.2045     0.3263    -0.4001 C.3     
   3 C3            -1.9528     0.3051    -1.7345 C.3     
   4 O4            -0.5361     2.3692     0.5650 O.2     
   5 O5            -2.7132     1.9943     0.6184 O.3     
   6 C6            -1.8118    -1.0550    -2.3679 C.ar    
   7 C7            -2.6868    -2.0696    -2.0256 C.ar    
   8 C8            -2.5604    -3.3172    -2.6042 C.ar    
   9 C9            -1.5528    -3.5523    -3.5311 C.ar    
  10 C10           -0.6755    -2.5309    -3.8727 C.ar    
  11 C11           -0.8111    -1.2841    -3.2945 C.ar    
  12 N12           -1.4217    -4.8130    -4.1178 N.3     
  13 C13           -2.7420    -5.4242    -4.3572 C.3     
  14 C14           -2.8288    -5.7499    -5.8631 C.3     
  15 C15           -1.3394    -5.8271    -6.2904 C.3     
  16 C16           -0.7029    -4.7254    -5.4068 C.3     
  17 C17           -3.5260    -7.0933    -6.0868 C.3     
  18 N18           -3.7006    -7.3197    -7.5236 N.pl3   
  19 C19           -4.3145    -8.4824    -7.9745 C.ar    
  20 C20           -4.7610    -9.4272    -7.0557 C.ar    
  21 C21           -5.3701   -10.5795    -7.5182 C.ar    
  22 C22           -5.5130   -10.7492    -8.8892 C.ar    
  23 C23           -5.0467    -9.7709    -9.7438 C.ar    
  24 N24           -4.4742    -8.6785    -9.2741 N.ar    
  25 C25            1.0546    -0.1665     0.3685 C.2     
  26 C26            2.4871    -0.4220     0.1032 C.ar    
  27 C27            2.9423    -1.7307    -0.0706 C.ar    
  28 C28            4.2759    -1.9689    -0.3176 C.ar    
  29 C29            5.1735    -0.9012    -0.3943 C.ar    
  30 C30            4.7180     0.4075    -0.2205 C.ar    
  31 C31            3.3829     0.6456     0.0209 C.ar    
  32 O32            0.6191    -0.2636     1.4991 O.2     
  33 N33            0.2321     0.1740    -0.6434 N.am    
  34 C34            2.8902     2.0582     0.2018 C.3     
  35 C35            1.9740    -2.8825     0.0127 C.3     
  36 C36            1.3049    -3.0857    -1.3481 C.3     
  37 C37            6.5604    -1.1487    -0.6507 C.1     
  38 N38            7.6607    -1.3450    -0.8541 N.1     
  39 H39           -1.5558    -0.4934     0.2265 H       
  40 H40           -3.0079     0.5183    -1.5628 H       
  41 H41           -1.5329     1.0605    -2.3986 H       
  42 H42           -2.8270     2.8442     1.0653 H       
  43 H43           -3.4698    -1.8862    -1.3047 H       
  44 H44           -3.2439    -4.1092    -2.3361 H       
  45 H45            0.1090    -2.7104    -4.5929 H       
  46 H46           -0.1323    -0.4882    -3.5631 H       
  47 H47           -2.8380    -6.3399    -3.7737 H       
  48 H48           -3.5303    -4.7231    -4.0834 H       
  49 H49           -3.3432    -4.9533    -6.4007 H       
  50 H50           -0.9171    -6.8051    -6.0597 H       
  51 H51           -1.2242    -5.5936    -7.3489 H       
  52 H52           -0.8511    -3.7443    -5.8580 H       
  53 H53            0.3597    -4.9212    -5.2628 H       
  54 H54           -2.9179    -7.8931    -5.6642 H       
  55 H55           -4.5010    -7.0822    -5.5996 H       
  56 H56           -3.3877    -6.6582    -8.1603 H       
  57 H57           -4.6333    -9.2631    -5.9960 H       
  58 H58           -5.7263   -11.3306    -6.8287 H       
  59 H59           -5.9839   -11.6380    -9.2826 H       
  60 H60           -5.1558    -9.8988   -10.8106 H       
  61 H61            4.6279    -2.9811    -0.4516 H       
  62 H62            5.4118     1.2330    -0.2795 H       
  63 H63            0.5913     0.3182    -1.5328 H       
  64 H64            2.9459     2.3302     1.2559 H       
  65 H65            3.5115     2.7373    -0.3820 H       
  66 H66            1.8567     2.1288    -0.1374 H       
  67 H67            2.5108    -3.7889     0.2926 H       
  68 H68            1.2136    -2.6644     0.7626 H       
  69 H69            0.5351    -3.8528    -1.2636 H       
  70 H70            0.8508    -2.1496    -1.6731 H       
  71 H71            2.0520    -3.3995    -2.0771 H       
@<TRIPOS>BOND
   1    1    2 1
   2    1    4 2
   3    1    5 1
   4    2    3 1
   5    2   33 1
   6    2   39 1
   7    3    6 1
   8    3   40 1
   9    3   41 1
  10    5   42 1
  11    6    7 ar
  12    6   11 ar
  13    7    8 ar
  14    7   43 1
  15    8    9 ar
  16    8   44 1
  17    9   10 ar
  18    9   12 1
  19   10   11 ar
  20   10   45 1
  21   11   46 1
  22   12   13 1
  23   12   16 1
  24   13   14 1
  25   13   47 1
  26   13   48 1
  27   14   15 1
  28   14   17 1
  29   14   49 1
  30   15   16 1
  31   15   50 1
  32   15   51 1
  33   16   52 1
  34   16   53 1
  35   17   18 1
  36   17   54 1
  37   17   55 1
  38   18   19 1
  39   18   56 1
  40   19   20 ar
  41   19   24 ar
  42   20   21 ar
  43   20   57 1
  44   21   22 ar
  45   21   58 1
  46   22   23 ar
  47   22   59 1
  48   23   24 ar
  49   23   60 1
  50   25   26 1
  51   25   32 2
  52   25   33 am
  53   26   27 ar
  54   26   31 ar
  55   27   28 ar
  56   27   35 1
  57   28   29 ar
  58   28   61 1
  59   29   30 ar
  60   29   37 1
  61   30   31 ar
  62   30   62 1
  63   31   34 1
  64   33   63 1
  65   34   64 1
  66   34   65 1
  67   34   66 1
  68   35   36 1
  69   35   67 1
  70   35   68 1
  71   36   69 1
  72   36   70 1
  73   36   71 1
  74   37   38 3

#	End of record

