#	Name: ASD01001249
#	Creating user name:	WinNT
#	Creation time:	15. 06. 2019 18:55

#	Modifying user name:	WinNT
#	Modification time:	15. 06. 2019 18:55

#	Program:	/corina/corina34_cracker 3.40 0067  02.08.2006

@<TRIPOS>MOLECULE
ASD01001249
  50   52    0    0    0
SMALL
NO_CHARGES


@<TRIPOS>ATOM
   1 C1             0.3115     1.3956    -0.3495 C.3     
   2 C2             0.0530    -0.0362     0.1239 C.3     
   3 C3             0.9401    -0.3433     1.3028 C.ar    
   4 C4            -1.3909    -0.1776     0.5313 C.ar    
   5 C5             0.7224     0.2861     2.5141 C.ar    
   6 C6             1.5360     0.0044     3.5955 C.ar    
   7 C7             2.5671    -0.9072     3.4657 C.ar    
   8 C8             2.7842    -1.5373     2.2547 C.ar    
   9 C9             1.9678    -1.2588     1.1745 C.ar    
  10 C10           -2.3608     0.5931    -0.0821 C.ar    
  11 C11           -3.6853     0.4635     0.2917 C.ar    
  12 C12           -4.0400    -0.4372     1.2786 C.ar    
  13 C13           -3.0702    -1.2086     1.8913 C.ar    
  14 C14           -1.7463    -1.0820     1.5145 C.ar    
  15 S15            0.4170    -1.1938    -1.2245 S.3     
  16 C16           -0.0958    -2.7930    -0.5389 C.3     
  17 C17            0.0851    -3.8831    -1.5971 C.3     
  18 C18           -0.3409    -5.2117    -1.0276 C.2     
  19 N19           -0.7388    -3.5670    -2.7716 N.3     
  20 O20            0.4912    -5.8969    -0.2278 O.3     
  21 O21           -1.4316    -5.6602    -1.2909 O.2     
  22 C22            1.7835     1.5786    -0.6158 C.ar    
  23 C23            2.3051     1.2676    -1.8576 C.ar    
  24 C24            3.6553     1.4354    -2.1018 C.ar    
  25 C25            4.4838     1.9147    -1.1045 C.ar    
  26 C26            3.9620     2.2267     0.1370 C.ar    
  27 C27            2.6110     2.0629     0.3800 C.ar    
  28 H28           -0.2494     1.5824    -1.2652 H       
  29 H29           -0.0081     2.0965     0.4217 H       
  30 H30           -0.0832     0.9983     2.6155 H       
  31 H31            1.3664     0.4967     4.5417 H       
  32 H32            3.2033    -1.1268     4.3104 H       
  33 H33            3.5900    -2.2493     2.1532 H       
  34 H34            2.1374    -1.7512     0.2283 H       
  35 H35           -2.0837     1.2968    -0.8530 H       
  36 H36           -4.4430     1.0661    -0.1870 H       
  37 H37           -5.0748    -0.5380     1.5711 H       
  38 H38           -3.3473    -1.9120     2.6625 H       
  39 H39           -0.9886    -1.6847     1.9932 H       
  40 H40            0.5155    -3.0276     0.3325 H       
  41 H41           -1.1441    -2.7428    -0.2445 H       
  42 H42            1.1333    -3.9333    -1.8916 H       
  43 H43           -1.7157    -3.5148    -2.5245 H       
  44 H44           -0.4306    -2.7121    -3.2100 H       
  45 H45            0.1738    -6.7442     0.1134 H       
  46 H46            1.6578     0.8931    -2.6368 H       
  47 H47            4.0630     1.1917    -3.0718 H       
  48 H48            5.5388     2.0452    -1.2951 H       
  49 H49            4.6093     2.6008     0.9164 H       
  50 H50            2.2034     2.3066     1.3499 H       
@<TRIPOS>BOND
   1    1    2 1
   2    1   22 1
   3    1   28 1
   4    1   29 1
   5    2    3 1
   6    2    4 1
   7    2   15 1
   8    3    5 ar
   9    3    9 ar
  10    4   10 ar
  11    4   14 ar
  12    5    6 ar
  13    5   30 1
  14    6    7 ar
  15    6   31 1
  16    7    8 ar
  17    7   32 1
  18    8    9 ar
  19    8   33 1
  20    9   34 1
  21   10   11 ar
  22   10   35 1
  23   11   12 ar
  24   11   36 1
  25   12   13 ar
  26   12   37 1
  27   13   14 ar
  28   13   38 1
  29   14   39 1
  30   15   16 1
  31   16   17 1
  32   16   40 1
  33   16   41 1
  34   17   18 1
  35   17   19 1
  36   17   42 1
  37   18   20 1
  38   18   21 2
  39   19   43 1
  40   19   44 1
  41   20   45 1
  42   22   23 ar
  43   22   27 ar
  44   23   24 ar
  45   23   46 1
  46   24   25 ar
  47   24   47 1
  48   25   26 ar
  49   25   48 1
  50   26   27 ar
  51   26   49 1
  52   27   50 1

#	End of record

