#	Name: ASD03240300
#	Creating user name:	WinNT
#	Creation time:	15. 06. 2019 20:34

#	Modifying user name:	WinNT
#	Modification time:	15. 06. 2019 20:34

#	Program:	/corina/corina34_cracker 3.40 0067  02.08.2006

@<TRIPOS>MOLECULE
ASD03240300
  87   91    0    0    0
SMALL
NO_CHARGES


@<TRIPOS>ATOM
   1 C1            -0.3044     1.1036    -1.5122 C.2     
   2 N2            -0.1749    -0.1628    -0.9931 N.pl3   
   3 O3            -3.6651     3.2296    -1.1194 O.2     
   4 C4            -3.7598     2.1422    -0.5908 C.2     
   5 C5            -2.5975     1.1835    -0.6259 C.3     
   6 N6            -1.4814     1.7956    -1.3509 N.pl3   
   7 N7             0.6905     1.6503    -2.1527 N.2     
   8 N8            -4.9045     1.7911     0.0280 N.am    
   9 C9            -5.9376     2.7160     0.1585 C.ar    
  10 C10           -7.2717     2.2887     0.1042 C.ar    
  11 C11           -8.2989     3.2135     0.2347 C.ar    
  12 C12           -7.9973     4.5636     0.4192 C.ar    
  13 C13           -6.6638     4.9805     0.4720 C.ar    
  14 C14           -5.6456     4.0612     0.3482 C.ar    
  15 C15           -9.0855     5.5510     0.5579 C.2     
  16 N16           -8.7939     6.8547     0.7361 N.am    
  17 O17          -10.2452     5.1882     0.5115 O.2     
  18 C18           -9.8209     7.8073     0.7450 C.ar    
  19 C19           -9.6532     9.0026     1.4317 C.ar    
  20 C20          -11.0044     7.5586     0.0624 C.ar    
  21 C21          -12.0167     8.4974     0.0711 C.ar    
  22 C22          -11.8513     9.6905     0.7626 C.ar    
  23 C23          -10.6654     9.9415     1.4405 C.ar    
  24 N24          -12.8768    10.6420     0.7711 N.pl3   
  25 C25          -12.7023    11.9005     1.5005 C.3     
  26 C26          -14.1252    10.3800     0.0506 C.3     
  27 C27           -7.5850     0.8523    -0.0926 C.ar    
  28 C28           -8.4870     0.2107     0.7543 C.ar    
  29 C29           -8.7751    -1.1258     0.5662 C.ar    
  30 C30           -8.1705    -1.8285    -0.4605 C.ar    
  31 C31           -7.2742    -1.1970    -1.3038 C.ar    
  32 C32           -6.9829     0.1407    -1.1286 C.ar    
  33 C33          -15.1003     9.6902     0.9695 C.ar    
  34 C34          -12.0955    12.9320     0.5846 C.ar    
  35 C35          -15.9716    10.4382     1.7391 C.ar    
  36 C36          -16.8666     9.8068     2.5818 C.ar    
  37 C37          -16.8903     8.4243     2.6552 C.ar    
  38 C38          -16.0171     7.6761     1.8839 C.ar    
  39 C39          -15.1266     8.3097     1.0380 C.ar    
  40 C40          -12.9133    13.7513    -0.1710 C.ar    
  41 C41          -12.3580    14.6979    -1.0110 C.ar    
  42 C42          -10.9819    14.8254    -1.0955 C.ar    
  43 C43          -10.1637    14.0043    -0.3382 C.ar    
  44 C44          -10.7215    13.0620     0.5049 C.ar    
  45 F45          -17.7644     7.8059     3.4790 F       
  46 F46          -10.4378    15.7501    -1.9166 F       
  47 C47           -8.4892    -3.2878    -0.6608 C.3     
  48 C48           -9.0840    -3.4931    -2.0554 C.3     
  49 C49           -7.2077    -4.1128    -0.5264 C.3     
  50 H50            0.6569    -0.6495    -1.1034 H       
  51 H51           -0.9153    -0.5697    -0.5164 H       
  52 H52           -2.2861     0.9527     0.3929 H       
  53 H53           -2.8988     0.2656    -1.1305 H       
  54 H54           -1.5727     2.6892    -1.7172 H       
  55 H55            1.5223     1.1636    -2.2630 H       
  56 H56           -5.0088     0.8942     0.3825 H       
  57 H57           -9.3282     2.8893     0.1932 H       
  58 H58           -6.4315     6.0255     0.6148 H       
  59 H59           -4.6171     4.3881     0.3896 H       
  60 H60           -7.8728     7.1334     0.8581 H       
  61 H61           -8.7312     9.1976     1.9591 H       
  62 H62          -11.1328     6.6310    -0.4756 H       
  63 H63          -12.9370     8.3041    -0.4601 H       
  64 H64          -10.5368    10.8690     1.9786 H       
  65 H65          -13.6714    12.2532     1.8534 H       
  66 H66          -12.0424    11.7381     2.3526 H       
  67 H67          -14.5524    11.3228    -0.2909 H       
  68 H68          -13.9215     9.7411    -0.8087 H       
  69 H69           -8.9593     0.7583     1.5564 H       
  70 H70           -9.4736    -1.6241     1.2221 H       
  71 H71           -6.8048    -1.7505    -2.1036 H       
  72 H72           -6.2829     0.6328    -1.7876 H       
  73 H73          -15.9528    11.5166     1.6820 H       
  74 H74          -17.5470    10.3914     3.1832 H       
  75 H75          -16.0346     6.5978     1.9403 H       
  76 H76          -14.4454     7.7263     0.4363 H       
  77 H77          -13.9867    13.6514    -0.1052 H       
  78 H78          -12.9971    15.3376    -1.6014 H       
  79 H79           -9.0902    14.1028    -0.4034 H       
  80 H80          -10.0835    12.4213     1.0957 H       
  81 H81           -9.2088    -3.6092     0.0921 H       
  82 H82           -8.3644    -3.1718    -2.8083 H       
  83 H83           -9.3145    -4.5486    -2.2002 H       
  84 H84           -9.9970    -2.9054    -2.1511 H       
  85 H85           -7.4382    -5.1682    -0.6712 H       
  86 H86           -6.4880    -3.7914    -1.2793 H       
  87 H87           -6.7839    -3.9665     0.4671 H       
@<TRIPOS>BOND
   1    1    2 1
   2    1    7 2
   3    1    6 1
   4    2   50 1
   5    2   51 1
   6    3    4 2
   7    4    5 1
   8    4    8 am
   9    5    6 1
  10    5   52 1
  11    5   53 1
  12    6   54 1
  13    7   55 1
  14    8    9 1
  15    8   56 1
  16    9   10 ar
  17    9   14 ar
  18   10   11 ar
  19   10   27 1
  20   11   12 ar
  21   11   57 1
  22   12   13 ar
  23   12   15 1
  24   13   14 ar
  25   13   58 1
  26   14   59 1
  27   15   16 am
  28   15   17 2
  29   16   18 1
  30   16   60 1
  31   18   19 ar
  32   18   20 ar
  33   19   23 ar
  34   19   61 1
  35   20   21 ar
  36   20   62 1
  37   21   22 ar
  38   21   63 1
  39   22   23 ar
  40   22   24 1
  41   23   64 1
  42   24   25 1
  43   24   26 1
  44   25   34 1
  45   25   65 1
  46   25   66 1
  47   26   33 1
  48   26   67 1
  49   26   68 1
  50   27   28 ar
  51   27   32 ar
  52   28   29 ar
  53   28   69 1
  54   29   30 ar
  55   29   70 1
  56   30   31 ar
  57   30   47 1
  58   31   32 ar
  59   31   71 1
  60   32   72 1
  61   33   35 ar
  62   33   39 ar
  63   34   40 ar
  64   34   44 ar
  65   35   36 ar
  66   35   73 1
  67   36   37 ar
  68   36   74 1
  69   37   38 ar
  70   37   45 1
  71   38   39 ar
  72   38   75 1
  73   39   76 1
  74   40   41 ar
  75   40   77 1
  76   41   42 ar
  77   41   78 1
  78   42   43 ar
  79   42   46 1
  80   43   44 ar
  81   43   79 1
  82   44   80 1
  83   47   48 1
  84   47   49 1
  85   47   81 1
  86   48   82 1
  87   48   83 1
  88   48   84 1
  89   49   85 1
  90   49   86 1
  91   49   87 1

#	End of record

