#	Name: ASD01148517
#	Creating user name:	WinNT
#	Creation time:	15. 06. 2019 19:02

#	Modifying user name:	WinNT
#	Modification time:	15. 06. 2019 19:02

#	Program:	/corina/corina34_cracker 3.40 0067  02.08.2006

@<TRIPOS>MOLECULE
ASD01148517
  58   62    0    0    0
SMALL
NO_CHARGES


@<TRIPOS>ATOM
   1 C1            -0.0180     1.4357     0.0450 C.ar    
   2 C2            -0.0166     0.0527     0.0405 C.ar    
   3 C3             1.1837    -0.6376     0.0176 C.ar    
   4 C4             2.3796     0.0567    -0.0008 C.ar    
   5 C5             2.3764     1.4392     0.0038 C.ar    
   6 C6             1.1784     2.1282     0.0267 C.ar    
   7 C7             3.6798     2.1954    -0.0162 C.3     
   8 O8             4.6902     1.4631    -0.7387 O.3     
   9 C9             3.5588     3.4850    -0.8627 C.3     
  10 C10            4.0453     3.0315    -2.2260 C.2     
  11 N11            4.6592     1.9035    -2.0819 N.2     
  12 C12            3.8508     3.7524    -3.4957 C.ar    
  13 C13            4.3739     3.1996    -4.7426 C.ar    
  14 C14            3.1643     4.9585    -3.5160 C.ar    
  15 C15            2.9671     5.6568    -4.6942 C.ar    
  16 C16            3.4468     5.1810    -5.9066 C.ar    
  17 C17            4.1723     3.9138    -5.9474 C.ar    
  18 C18            3.2208     5.9469    -7.1459 C.2     
  19 O19            3.7323     5.5830    -8.1874 O.2     
  20 N20            2.4472     7.0503    -7.1246 N.am    
  21 C21            4.6736     3.3954    -7.1481 C.ar    
  22 C22            5.0673     1.9829    -4.7703 C.ar    
  23 C23            4.1463     2.5145     1.4056 C.3     
  24 F24            4.3127     1.3233     2.1201 F       
  25 F25            5.3641     3.2012     1.3537 F       
  26 F26            3.1887     3.3107     2.0429 F       
  27 Cl27           1.1872    -2.3736     0.0124 Cl      
  28 Cl28          -1.5186    -0.8174     0.0641 Cl      
  29 N29            2.2325     7.7781    -8.3024 N.pl3   
  30 C30            1.3232     7.2605    -9.3278 C.3     
  31 C31            2.8853     8.9972    -8.4988 C.ar    
  32 C32            2.6735     9.7201    -9.6660 C.ar    
  33 C33            3.3202    10.9253    -9.8568 C.ar    
  34 C34            4.1778    11.4127    -8.8876 C.ar    
  35 C35            4.3912    10.6954    -7.7248 C.ar    
  36 C36            3.7433     9.4922    -7.5250 C.ar    
  37 C37            5.5382     1.5032    -5.9563 C.ar    
  38 C38            5.3446     2.2086    -7.1410 C.ar    
  39 H39           -0.9538     1.9747     0.0584 H       
  40 H40            3.3161    -0.4810    -0.0183 H       
  41 H41            1.1769     3.2082     0.0302 H       
  42 H42            2.5225     3.8190    -0.9131 H       
  43 H43            4.2008     4.2708    -0.4645 H       
  44 H44            2.7753     5.3606    -2.5922 H       
  45 H45            2.4278     6.5922    -4.6699 H       
  46 H46            2.0392     7.3406    -6.2939 H       
  47 H47            4.5291     3.9322    -8.0740 H       
  48 H48            5.2281     1.4283    -3.8576 H       
  49 H49            0.3138     7.6239    -9.1353 H       
  50 H50            1.6511     7.6016   -10.3098 H       
  51 H51            1.3283     6.1708    -9.3013 H       
  52 H52            2.0041     9.3398   -10.4234 H       
  53 H53            3.1562    11.4877   -10.7642 H       
  54 H54            4.6822    12.3555    -9.0394 H       
  55 H55            5.0619    11.0787    -6.9700 H       
  56 H56            3.9105     8.9325    -6.6166 H       
  57 H57            6.0726     0.5649    -5.9766 H       
  58 H58            5.7305     1.8096    -8.0674 H       
@<TRIPOS>BOND
   1    1    2 ar
   2    1    6 ar
   3    1   39 1
   4    2    3 ar
   5    2   28 1
   6    3    4 ar
   7    3   27 1
   8    4    5 ar
   9    4   40 1
  10    5    6 ar
  11    5    7 1
  12    6   41 1
  13    7    8 1
  14    7    9 1
  15    7   23 1
  16    8   11 1
  17    9   10 1
  18    9   42 1
  19    9   43 1
  20   10   11 2
  21   10   12 1
  22   12   13 ar
  23   12   14 ar
  24   13   22 ar
  25   13   17 ar
  26   14   15 ar
  27   14   44 1
  28   15   16 ar
  29   15   45 1
  30   16   17 ar
  31   16   18 1
  32   17   21 ar
  33   18   19 2
  34   18   20 am
  35   20   29 1
  36   20   46 1
  37   21   38 ar
  38   21   47 1
  39   22   37 ar
  40   22   48 1
  41   23   24 1
  42   23   25 1
  43   23   26 1
  44   29   30 1
  45   29   31 1
  46   30   49 1
  47   30   50 1
  48   30   51 1
  49   31   32 ar
  50   31   36 ar
  51   32   33 ar
  52   32   52 1
  53   33   34 ar
  54   33   53 1
  55   34   35 ar
  56   34   54 1
  57   35   36 ar
  58   35   55 1
  59   36   56 1
  60   37   38 ar
  61   37   57 1
  62   38   58 1

#	End of record

