#	Name: ASD06150002
#	Creating user name:	WinNT
#	Creation time:	15. 06. 2019 21:05

#	Modifying user name:	WinNT
#	Modification time:	15. 06. 2019 21:05

#	Program:	/corina/corina34_cracker 3.40 0067  02.08.2006

@<TRIPOS>MOLECULE
ASD06150002
 171  172    0    0    0
SMALL
NO_CHARGES


@<TRIPOS>ATOM
   1 C1             0.6562     1.4896    -0.5873 C.3     
   2 C2             2.0898     2.0085    -0.7158 C.3     
   3 C3             2.0715     3.5105    -0.8364 C.2     
   4 N4             2.8568     1.6232     0.4715 N.am    
   5 O5             2.6429     4.1921    -0.0119 O.2     
   6 C6             0.6654    -0.0404    -0.5902 C.3     
   7 C7            -0.7466    -0.5514    -0.4636 C.2     
   8 O8            -1.6694     0.2310    -0.3794 O.2     
   9 N9            -0.9839    -1.8780    -0.4440 N.am    
  10 C10            2.6645     6.0253    -2.7047 C.3     
  11 C11            1.4023     5.5566    -1.9779 C.3     
  12 C12            0.1857     5.9830    -2.7582 C.2     
  13 N13            1.4202     4.0964    -1.8606 N.am    
  14 O14           -0.5902     5.1494    -3.1753 O.2     
  15 C15            3.8749     5.7075    -1.8651 C.ar    
  16 C16            4.5196     4.4937    -2.0134 C.ar    
  17 C17            5.6299     4.2022    -1.2432 C.ar    
  18 C18            6.0958     5.1247    -0.3251 C.ar    
  19 C19            5.4516     6.3388    -0.1775 C.ar    
  20 C20            4.3439     6.6321    -0.9508 C.ar    
  21 C21            4.4642    -4.1896     1.7849 C.3     
  22 C22            5.4134    -3.3860     2.6760 C.3     
  23 C23            6.7720    -3.3155     2.0278 C.2     
  24 N24            4.8848    -2.0270     2.8542 N.3     
  25 O25            7.2506    -2.2438     1.7436 O.2     
  26 C26            3.1227    -4.3675     2.4987 C.3     
  27 C27            2.1337    -5.0616     1.5601 C.3     
  28 C28            3.3214    -5.2217     3.7524 C.3     
  29 C29            5.3890     0.9901     1.9506 C.3     
  30 C30            4.2281     0.0130     1.7542 C.3     
  31 C31            3.4391     0.4093     0.5330 C.2     
  32 N32            4.7567    -1.3459     1.5760 N.3     
  33 O33            3.3281    -0.3642    -0.3946 O.2     
  34 S34            6.3387     0.5131     3.4207 S.3     
  35 C35           -2.4212     7.8184    -2.8063 C.3     
  36 C36           -1.2231     7.7055    -3.7511 C.3     
  37 C37           -0.9634     9.0430    -4.3951 C.2     
  38 N38           -0.0403     7.2909    -2.9926 N.am    
  39 O39            0.1045     9.5955    -4.2361 O.2     
  40 C40           -2.7574     6.4561    -2.2565 C.ar    
  41 C41           -2.1679     6.0202    -1.0842 C.ar    
  42 C42           -2.4745     4.7719    -0.5782 C.ar    
  43 C43           -3.3748     3.9555    -1.2472 C.ar    
  44 C44           -3.9650     4.3952    -2.4232 C.ar    
  45 C45           -3.6593     5.6466    -2.9221 C.ar    
  46 O46           -3.6777     2.7268    -0.7516 O.3     
  47 C47           -0.9462    10.7178    -7.1082 C.3     
  48 C48           -1.6655    10.9253    -5.7739 C.3     
  49 C49           -2.9757    11.6302    -6.0138 C.2     
  50 N50           -1.9179     9.6251    -5.1478 N.am    
  51 O51           -4.0166    11.0100    -5.9605 O.2     
  52 C52            0.4494    10.1458    -6.8517 C.3     
  53 C53           -1.7466     9.7416    -7.9726 C.3     
  54 C54           -4.5635    14.4971    -5.2320 C.3     
  55 C55           -4.2672    13.6458    -6.4683 C.3     
  56 C56           -4.1871    14.5345    -7.6828 C.2     
  57 N57           -2.9908    12.9498    -6.2875 N.am    
  58 O58           -3.1645    14.5818    -8.3332 O.2     
  59 C59           -4.7230    13.6006    -4.0313 C.2     
  60 N60           -5.0319    14.1303    -2.8311 N.am    
  61 O61           -4.5733    12.4024    -4.1449 O.2     
  62 C62           -6.6359    16.2473    -9.8134 C.3     
  63 C63           -5.2125    16.0563    -9.2858 C.3     
  64 C64           -4.5929    17.4027    -9.0132 C.2     
  65 N65           -5.2518    15.2767    -8.0461 N.am    
  66 O66           -4.2208    17.6834    -7.8935 O.2     
  67 C67           -7.2060    14.9116   -10.2157 C.2     
  68 O68           -6.5089    13.9250   -10.1912 O.2     
  69 O69           -8.4883    14.8178   -10.6012 O.3     
  70 C70           -2.3266    19.4905    -9.8323 C.3     
  71 C71           -3.8501    19.6037    -9.7485 C.3     
  72 C72           -4.3370    20.5972   -10.7717 C.2     
  73 N73           -4.4524    18.2948   -10.0135 N.am    
  74 O74           -5.1109    20.2465   -11.6371 O.2     
  75 C75           -1.8207    18.5780    -8.7132 C.3     
  76 C76           -0.3201    18.4664    -8.7958 C.2     
  77 O77            0.2852    19.0584    -9.6642 O.2     
  78 N78            0.3494    17.7088    -7.9046 N.am    
  79 C79           -4.3004    24.2544   -11.1394 C.3     
  80 C80           -4.3857    22.8413   -11.7197 C.3     
  81 C81           -3.5264    22.7527   -12.9546 C.2     
  82 N82           -3.9124    21.8755   -10.7251 N.am    
  83 O83           -2.6129    21.9642   -12.9991 O.2     
  84 C84           -5.2673    24.3808    -9.9604 C.3     
  85 C85           -5.1820    25.7939    -9.3801 C.3     
  86 C86           -6.1489    25.9203    -8.2011 C.3     
  87 N87           -6.0670    27.2770    -7.6439 N.3     
  88 H88            0.2222     1.8486     0.3459 H       
  89 H89            0.0624     1.8510    -1.4269 H       
  90 H90            2.5537     1.5783    -1.6034 H       
  91 H91            2.9456     2.2419     1.2133 H       
  92 H92            1.0995    -0.3993    -1.5234 H       
  93 H93            1.2592    -0.4017     0.2494 H       
  94 H94           -0.2459    -2.5038    -0.5114 H       
  95 H95           -1.8928    -2.2069    -0.3626 H       
  96 H96            2.7428     5.5132    -3.6637 H       
  97 H97            2.6097     7.1012    -2.8708 H       
  98 H98            1.3699     6.0006    -0.9830 H       
  99 H99            0.9632     3.5512    -2.5201 H       
 100 H100           4.1556     3.7730    -2.7307 H       
 101 H101           6.1331     3.2536    -1.3585 H       
 102 H102           6.9628     4.8966     0.2771 H       
 103 H103           5.8154     7.0594     0.5400 H       
 104 H104           3.8429     7.5822    -0.8381 H       
 105 H105           4.3087    -3.6572     0.8466 H       
 106 H106           4.8992    -5.1678     1.5799 H       
 107 H107           5.4992    -3.8727     3.6475 H       
 108 H108           7.3177    -4.2234     1.8174 H       
 109 H109           4.0034    -2.0433     3.3452 H       
 110 H110           2.7300    -3.3912     2.7827 H       
 111 H111           2.5264    -6.0380     1.2760 H       
 112 H112           1.1780    -5.1884     2.0686 H       
 113 H113           1.9922    -4.4531     0.6669 H       
 114 H114           3.7141    -6.1980     3.4683 H       
 115 H115           4.0259    -4.7272     4.4211 H       
 116 H116           2.3656    -5.3485     4.2609 H       
 117 H117           6.0375     0.9645     1.0750 H       
 118 H118           4.9967     1.9985     2.0829 H       
 119 H119           3.5795     0.0387     2.6299 H       
 120 H120           5.6381    -1.3296     1.0851 H       
 121 H121           7.3092     1.4431     3.4688 H       
 122 H122          -2.1739     8.4908    -1.9848 H       
 123 H123          -3.2787     8.2116    -3.3523 H       
 124 H124          -1.4373     6.9661    -4.5228 H       
 125 H125           0.5802     7.9577    -2.6590 H       
 126 H126          -1.4668     6.6560    -0.5640 H       
 127 H127          -2.0134     4.4317     0.3373 H       
 128 H128          -4.6661     3.7615    -2.9458 H       
 129 H129          -4.1218     5.9912    -3.8352 H       
 130 H130          -4.4293     2.7225    -0.1433 H       
 131 H131          -0.8579    11.6731    -7.6257 H       
 132 H132          -1.0425    11.5308    -5.1155 H       
 133 H133          -2.7720     9.1832    -5.2749 H       
 134 H134           0.9619     9.9979    -7.8023 H       
 135 H135           1.0196    10.8413    -6.2359 H       
 136 H136           0.3611     9.1905    -6.3342 H       
 137 H137          -2.7662    10.1095    -8.0872 H       
 138 H138          -1.2786     9.6569    -8.9534 H       
 139 H139          -1.7652     8.7629    -7.4931 H       
 140 H140          -3.7391    15.1895    -5.0616 H       
 141 H141          -5.4836    15.0596    -5.3903 H       
 142 H142          -5.0637    12.9144    -6.6052 H       
 143 H143          -2.1566    13.4386    -6.3648 H       
 144 H144          -5.1516    15.0886    -2.7402 H       
 145 H145          -5.1346    13.5532    -2.0582 H       
 146 H146          -7.2568    16.6871    -9.0329 H       
 147 H147          -6.6168    16.9097   -10.6788 H       
 148 H148          -4.6174    15.5264   -10.0295 H       
 149 H149          -6.0440    15.2947    -7.4867 H       
 150 H150          -8.8089    13.9400   -10.8500 H       
 151 H151          -2.0461    19.0705   -10.7983 H       
 152 H152          -1.8821    20.4797    -9.7233 H       
 153 H153          -4.1351    19.9397    -8.7515 H       
 154 H154          -4.7500    18.0703   -10.9090 H       
 155 H155          -2.1012    18.9979    -7.7473 H       
 156 H156          -2.2651    17.5887    -8.8222 H       
 157 H157          -0.1347    17.2353    -7.2100 H       
 158 H158           1.3153    17.6369    -7.9577 H       
 159 H159          -3.2833    24.4459   -10.7973 H       
 160 H160          -4.5678    24.9796   -11.9079 H       
 161 H161          -5.4202    22.6173   -11.9801 H       
 162 H162          -3.7276    23.3944   -13.7996 H       
 163 H163          -3.2934    22.1560   -10.0329 H       
 164 H164          -6.2844    24.1893   -10.3025 H       
 165 H165          -4.9999    23.6556    -9.1918 H       
 166 H166          -4.1649    25.9854    -9.0380 H       
 167 H167          -5.4494    26.5191   -10.1486 H       
 168 H168          -7.1660    25.7288    -8.5432 H       
 169 H169          -5.8815    25.1951    -7.4325 H       
 170 H170          -6.2477    27.9710    -8.3537 H       
 171 H171          -6.6968    27.3859    -6.8631 H       
@<TRIPOS>BOND
   1    1    6 1
   2    1    2 1
   3    1   88 1
   4    1   89 1
   5    2    4 1
   6    2    3 1
   7    2   90 1
   8    3    5 2
   9    3   13 am
  10    4   31 am
  11    4   91 1
  12    6    7 1
  13    6   92 1
  14    6   93 1
  15    7    8 2
  16    7    9 am
  17    9   94 1
  18    9   95 1
  19   10   15 1
  20   10   11 1
  21   10   96 1
  22   10   97 1
  23   11   12 1
  24   11   13 1
  25   11   98 1
  26   12   14 2
  27   12   38 am
  28   13   99 1
  29   15   16 ar
  30   15   20 ar
  31   16   17 ar
  32   16  100 1
  33   17   18 ar
  34   17  101 1
  35   18   19 ar
  36   18  102 1
  37   19   20 ar
  38   19  103 1
  39   20  104 1
  40   21   26 1
  41   21   22 1
  42   21  105 1
  43   21  106 1
  44   22   24 1
  45   22   23 1
  46   22  107 1
  47   23   25 2
  48   23  108 1
  49   24   32 1
  50   24  109 1
  51   26   27 1
  52   26   28 1
  53   26  110 1
  54   27  111 1
  55   27  112 1
  56   27  113 1
  57   28  114 1
  58   28  115 1
  59   28  116 1
  60   29   34 1
  61   29   30 1
  62   29  117 1
  63   29  118 1
  64   30   31 1
  65   30   32 1
  66   30  119 1
  67   31   33 2
  68   32  120 1
  69   34  121 1
  70   35   40 1
  71   35   36 1
  72   35  122 1
  73   35  123 1
  74   36   37 1
  75   36   38 1
  76   36  124 1
  77   37   39 2
  78   37   50 am
  79   38  125 1
  80   40   41 ar
  81   40   45 ar
  82   41   42 ar
  83   41  126 1
  84   42   43 ar
  85   42  127 1
  86   43   44 ar
  87   43   46 1
  88   44   45 ar
  89   44  128 1
  90   45  129 1
  91   46  130 1
  92   47   52 1
  93   47   53 1
  94   47   48 1
  95   47  131 1
  96   48   50 1
  97   48   49 1
  98   48  132 1
  99   49   51 2
 100   49   57 am
 101   50  133 1
 102   52  134 1
 103   52  135 1
 104   52  136 1
 105   53  137 1
 106   53  138 1
 107   53  139 1
 108   54   59 1
 109   54   55 1
 110   54  140 1
 111   54  141 1
 112   55   57 1
 113   55   56 1
 114   55  142 1
 115   56   58 2
 116   56   65 am
 117   57  143 1
 118   59   60 am
 119   59   61 2
 120   60  144 1
 121   60  145 1
 122   62   67 1
 123   62   63 1
 124   62  146 1
 125   62  147 1
 126   63   64 1
 127   63   65 1
 128   63  148 1
 129   64   66 2
 130   64   73 am
 131   65  149 1
 132   67   68 2
 133   67   69 1
 134   69  150 1
 135   70   75 1
 136   70   71 1
 137   70  151 1
 138   70  152 1
 139   71   73 1
 140   71   72 1
 141   71  153 1
 142   72   74 2
 143   72   82 am
 144   73  154 1
 145   75   76 1
 146   75  155 1
 147   75  156 1
 148   76   77 2
 149   76   78 am
 150   78  157 1
 151   78  158 1
 152   79   80 1
 153   79   84 1
 154   79  159 1
 155   79  160 1
 156   80   82 1
 157   80   81 1
 158   80  161 1
 159   81   83 2
 160   81  162 1
 161   82  163 1
 162   84   85 1
 163   84  164 1
 164   84  165 1
 165   85   86 1
 166   85  166 1
 167   85  167 1
 168   86   87 1
 169   86  168 1
 170   86  169 1
 171   87  170 1
 172   87  171 1

#	End of record

