#	Name: ASD01410451
#	Creating user name:	WinNT
#	Creation time:	15. 06. 2019 19:17

#	Modifying user name:	WinNT
#	Modification time:	15. 06. 2019 19:17

#	Program:	/corina/corina34_cracker 3.40 0067  02.08.2006

@<TRIPOS>MOLECULE
ASD01410451
  37   39    0    0    0
SMALL
NO_CHARGES


@<TRIPOS>ATOM
   1 S1             0.2323     1.7963    -1.1378 S.3     
   2 C2             0.4155     0.0846    -1.5609 C.2     
   3 N3             1.6401    -0.2622    -1.2395 N.2     
   4 C4             2.4629     0.6150    -0.7083 C.2     
   5 C5             1.8900     1.9608    -0.5227 C.2     
   6 O6             3.6088     0.3374    -0.3938 O.2     
   7 C7             2.4870     3.0623    -0.0052 C.2     
   8 C8             2.3394     5.4817     0.5763 C.ar    
   9 C9             1.8250     4.3713    -0.1023 C.ar    
  10 C10            0.6662     4.5298    -0.8775 C.ar    
  11 C11            0.0832     5.7827    -0.9352 C.ar    
  12 C12            0.6550     6.8295    -0.2339 C.ar    
  13 N13            1.7456     6.6530     0.4879 N.ar    
  14 S14           -0.1931    -2.3081    -2.4489 S.o2    
  15 O15           -1.3824    -2.8763    -2.9800 O.2     
  16 O16            1.0469    -2.3112    -3.1429 O.2     
  17 N17           -0.5396    -0.7230    -2.1177 N.am    
  18 C18            0.0971    -3.1116    -0.9079 C.ar    
  19 C19           -0.9526    -3.6974    -0.2253 C.ar    
  20 C20           -0.7250    -4.3277     0.9837 C.ar    
  21 C21            0.5525    -4.3726     1.5100 C.ar    
  22 C22            1.6024    -3.7876     0.8270 C.ar    
  23 C23            1.3754    -3.1610    -0.3841 C.ar    
  24 C24            0.8005    -5.0589     2.8285 C.3     
  25 H25            3.4490     2.9782     0.4783 H       
  26 H26            3.2280     5.3757     1.1809 H       
  27 H27            0.2409     3.6954    -1.4154 H       
  28 H28           -0.8093     5.9424    -1.5220 H       
  29 H29            0.2009     7.8085    -0.2784 H       
  30 H30           -1.4192    -0.3667    -2.3181 H       
  31 H31           -1.9507    -3.6623    -0.6365 H       
  32 H32           -1.5452    -4.7848     1.5173 H       
  33 H33            2.6003    -3.8224     1.2384 H       
  34 H34            2.1963    -2.7072    -0.9195 H       
  35 H35            1.0323    -6.1095     2.6534 H       
  36 H36            1.6394    -4.5812     3.3346 H       
  37 H37           -0.0908    -4.9824     3.4512 H       
@<TRIPOS>BOND
   1    1    2 1
   2    1    5 1
   3    2    3 2
   4    2   17 1
   5    3    4 1
   6    4    5 1
   7    4    6 2
   8    5    7 2
   9    7    9 1
  10    7   25 1
  11    8    9 ar
  12    8   13 ar
  13    8   26 1
  14    9   10 ar
  15   10   11 ar
  16   10   27 1
  17   11   12 ar
  18   11   28 1
  19   12   13 ar
  20   12   29 1
  21   14   15 2
  22   14   16 2
  23   14   17 am
  24   14   18 1
  25   17   30 1
  26   18   19 ar
  27   18   23 ar
  28   19   20 ar
  29   19   31 1
  30   20   21 ar
  31   20   32 1
  32   21   22 ar
  33   21   24 1
  34   22   23 ar
  35   22   33 1
  36   23   34 1
  37   24   35 1
  38   24   36 1
  39   24   37 1

#	End of record

