#	Name: ASD03331762
#	Creating user name:	WinNT
#	Creation time:	15. 06. 2019 20:39

#	Modifying user name:	WinNT
#	Modification time:	15. 06. 2019 20:39

#	Program:	/corina/corina34_cracker 3.40 0067  02.08.2006

@<TRIPOS>MOLECULE
ASD03331762
  44   47    0    0    0
SMALL
NO_CHARGES


@<TRIPOS>ATOM
   1 Cl1            0.0021    -0.0041     0.0020 Cl      
   2 C2            -0.0215     1.7317     0.0116 C.ar    
   3 C3            -1.2373     2.4030     0.0325 C.ar    
   4 C4            -1.2757     3.7689     0.0399 C.ar    
   5 C5            -0.0842     4.4961     0.0267 C.ar    
   6 C6             0.2358     5.9258     0.0293 C.2     
   7 C7             1.5740     6.0285     0.0109 C.2     
   8 N8             2.1375     4.7813    -0.0033 N.pl3   
   9 H9             3.0904     4.6005    -0.0172 H       
  10 C10            1.1503     3.8215     0.0059 C.ar    
  11 C11            1.1671     2.4308     0.0040 C.ar    
  12 S12            2.4721     7.5444     0.0049 S.o2    
  13 O13            1.6093     8.5242     0.5658 O.2     
  14 O14            3.7594     7.2502     0.5299 O.2     
  15 N15            2.6997     7.9730    -1.5784 N.am    
  16 C16            1.5479     8.3088    -2.4192 C.3     
  17 C17            2.0236     9.0052    -3.6681 C.ar    
  18 C18            2.1509    10.3825    -3.6831 C.ar    
  19 C19            2.5866    11.0254    -4.8240 C.ar    
  20 C20            2.8985    10.2844    -5.9621 C.ar    
  21 C21            2.7685     8.8973    -5.9414 C.ar    
  22 C22            2.3369     8.2643    -4.7934 C.ar    
  23 C23            3.3670    10.9702    -7.1919 C.ar    
  24 C24            3.5021    12.3568    -7.2109 C.ar    
  25 C25            3.9386    12.9894    -8.3573 C.ar    
  26 C26            4.2414    12.2494    -9.4860 C.ar    
  27 C27            4.1087    10.8727    -9.4728 C.ar    
  28 C28            3.6788    10.2292    -8.3299 C.ar    
  29 H29           -2.1594     1.8409     0.0428 H       
  30 H30           -2.2248     4.2841     0.0555 H       
  31 H31           -0.4710     6.7423     0.0431 H       
  32 H32            2.1078     1.9002    -0.0075 H       
  33 H33            3.5956     8.0018    -1.9491 H       
  34 H34            1.0184     7.3958    -2.6916 H       
  35 H35            0.8763     8.9680    -1.8691 H       
  36 H36            1.9085    10.9558    -2.8005 H       
  37 H37            2.6853    12.1008    -4.8348 H       
  38 H38            3.0086     8.3182    -6.8208 H       
  39 H39            2.2397     7.1888    -4.7749 H       
  40 H40            3.2652    12.9356    -6.3304 H       
  41 H41            4.0437    14.0642    -8.3731 H       
  42 H42            4.5824    12.7485   -10.3810 H       
  43 H43            4.3461    10.2998   -10.3570 H       
  44 H44            3.5798     9.1538    -8.3193 H       
@<TRIPOS>BOND
   1    1    2 1
   2    2   11 ar
   3    2    3 ar
   4    3    4 ar
   5    3   29 1
   6    4    5 ar
   7    4   30 1
   8    5   10 ar
   9    5    6 1
  10    6    7 2
  11    6   31 1
  12    7    8 1
  13    7   12 1
  14    8    9 1
  15    8   10 1
  16   10   11 ar
  17   11   32 1
  18   12   13 2
  19   12   14 2
  20   12   15 am
  21   15   16 1
  22   15   33 1
  23   16   17 1
  24   16   34 1
  25   16   35 1
  26   17   22 ar
  27   17   18 ar
  28   18   19 ar
  29   18   36 1
  30   19   20 ar
  31   19   37 1
  32   20   21 ar
  33   20   23 1
  34   21   22 ar
  35   21   38 1
  36   22   39 1
  37   23   28 ar
  38   23   24 ar
  39   24   25 ar
  40   24   40 1
  41   25   26 ar
  42   25   41 1
  43   26   27 ar
  44   26   42 1
  45   27   28 ar
  46   27   43 1
  47   28   44 1

#	End of record

