#	Name: ASD05730125
#	Creating user name:	WinNT
#	Creation time:	15. 06. 2019 21:02

#	Modifying user name:	WinNT
#	Modification time:	15. 06. 2019 21:02

#	Program:	/corina/corina34_cracker 3.40 0067  02.08.2006

@<TRIPOS>MOLECULE
ASD05730125
  84   89    0    0    0
SMALL
NO_CHARGES


@<TRIPOS>ATOM
   1 N1            -2.1418     1.2260    -0.6607 N.3     
   2 C2            -1.8511    -0.1426    -0.5886 C.ar    
   3 C3            -0.7866    -0.6648    -1.3094 C.ar    
   4 C4            -0.4997    -2.0144    -1.2386 C.ar    
   5 C5            -1.2759    -2.8493    -0.4464 C.ar    
   6 C6            -2.3416    -2.3280     0.2762 C.ar    
   7 C7            -2.6260    -0.9773     0.2100 C.ar    
   8 N8            -0.9847    -4.2174    -0.3760 N.pl3   
   9 C9            -1.2064    -4.9112     0.7976 C.ar    
  10 N10           -1.0144    -6.2215     0.8100 N.ar    
  11 C11           -1.2173    -6.9226     1.9196 C.ar    
  12 C12           -1.6407    -6.2438     3.0828 C.ar    
  13 C13           -1.8298    -4.8550     3.0181 C.ar    
  14 N14           -1.5992    -4.2387     1.8741 N.ar    
  15 N15           -1.0212    -8.2821     1.9416 N.am    
  16 C16           -1.2295    -8.9877     3.0699 C.2     
  17 C17           -1.6691    -8.3139     4.2929 C.2     
  18 C18           -1.8655    -6.9587     4.2812 C.2     
  19 C19           -0.6011    -8.9409     0.7796 C.ar    
  20 O20           -1.0514   -10.1928     3.0726 O.2     
  21 C21           -1.8992    -9.0916     5.5330 C.ar    
  22 C22           -1.0028     2.0314    -0.1985 C.3     
  23 C23            0.6793    -8.7309     0.2849 C.ar    
  24 C24           -3.0390    -9.8852     5.6604 C.ar    
  25 C25           -3.2475   -10.6074     6.8173 C.ar    
  26 C26           -2.3289   -10.5451     7.8501 C.ar    
  27 C27           -1.1966    -9.7597     7.7297 C.ar    
  28 C28           -0.9742    -9.0373     6.5750 C.ar    
  29 S29           -2.6027   -11.4694     9.3250 S.o2    
  30 C30           -1.8035   -13.0676     9.0126 C.3     
  31 C31           -1.9741   -13.9709    10.2357 C.3     
  32 O32           -1.3445   -15.2299     9.9896 O.3     
  33 C33           -1.4462   -16.1528    11.0758 C.3     
  34 O34           -1.8994   -10.7475    10.3267 O.2     
  35 O35           -4.0143   -11.6213     9.3864 O.2     
  36 C36           -3.3551     1.5476     0.1036 C.3     
  37 C37           -3.6823     3.0332    -0.0651 C.3     
  38 N38           -2.5433     3.8386     0.3971 N.3     
  39 C39           -1.3300     3.5170    -0.3672 C.3     
  40 C40           -4.9218     3.3801     0.7621 C.3     
  41 C41           -0.1622     4.3589     0.1508 C.3     
  42 F42           -3.6620    -0.4694     0.9128 F       
  43 C43           -1.4622    -9.8100     0.1226 C.ar    
  44 C44           -1.0449   -10.4583    -1.0234 C.ar    
  45 C45            0.2288   -10.2426    -1.5166 C.ar    
  46 C46            1.0906    -9.3821    -0.8615 C.ar    
  47 C47            0.2601    -8.1825     6.4450 C.3     
  48 F48            1.0219    -8.2827     7.6142 F       
  49 F49            1.0189    -8.6219     5.3549 F       
  50 F50           -0.1147    -6.8495     6.2454 F       
  51 H51           -0.1825    -0.0161    -1.9263 H       
  52 H52            0.3288    -2.4202    -1.8002 H       
  53 H53           -2.9455    -2.9776     0.8926 H       
  54 H54           -0.6274    -4.6778    -1.1514 H       
  55 H55           -2.1535    -4.3015     3.8872 H       
  56 H56           -2.1895    -6.4440     5.1737 H       
  57 H57           -0.8098     1.8187     0.8530 H       
  58 H58           -0.1198     1.7843    -0.7878 H       
  59 H59            1.3527    -8.0587     0.7959 H       
  60 H60           -3.7571    -9.9341     4.8552 H       
  61 H61           -4.1297   -11.2224     6.9172 H       
  62 H62           -0.4833    -9.7148     8.5393 H       
  63 H63           -2.2634   -13.5403     8.1448 H       
  64 H64           -0.7418   -12.9117     8.8213 H       
  65 H65           -1.5142   -13.4981    11.1035 H       
  66 H66           -3.0358   -14.1268    10.4270 H       
  67 H67           -2.4969   -16.3539    11.2845 H       
  68 H68           -0.9439   -17.0830    10.8105 H       
  69 H69           -0.9753   -15.7253    11.9611 H       
  70 H70           -4.1871     0.9478    -0.2654 H       
  71 H71           -3.1889     1.3294     1.1586 H       
  72 H72           -3.8753     3.2459    -1.1166 H       
  73 H73           -2.7526     4.8243     0.3452 H       
  74 H74           -1.4962     3.7352    -1.4222 H       
  75 H75           -4.7279     3.1681     1.8136 H       
  76 H76           -5.1545     4.4381     0.6418 H       
  77 H77           -5.7659     2.7812     0.4204 H       
  78 H78            0.0041     4.1395     1.2055 H       
  79 H79            0.7375     4.1201    -0.4163 H       
  80 H80           -0.3963     5.4168     0.0323 H       
  81 H81           -2.4570    -9.9792     0.5075 H       
  82 H82           -1.7140   -11.1346    -1.5346 H       
  83 H83            0.5528   -10.7507    -2.4129 H       
  84 H84            2.0847    -9.2155    -1.2494 H       
@<TRIPOS>BOND
   1    1    2 1
   2    1   22 1
   3    1   36 1
   4    2    3 ar
   5    2    7 ar
   6    3    4 ar
   7    3   51 1
   8    4    5 ar
   9    4   52 1
  10    5    6 ar
  11    5    8 1
  12    6    7 ar
  13    6   53 1
  14    7   42 1
  15    8    9 1
  16    8   54 1
  17    9   10 ar
  18    9   14 ar
  19   10   11 ar
  20   11   12 ar
  21   11   15 1
  22   12   13 ar
  23   12   18 1
  24   13   14 ar
  25   13   55 1
  26   15   16 am
  27   15   19 1
  28   16   17 1
  29   16   20 2
  30   17   18 2
  31   17   21 1
  32   18   56 1
  33   19   43 ar
  34   19   23 ar
  35   21   24 ar
  36   21   28 ar
  37   22   39 1
  38   22   57 1
  39   22   58 1
  40   23   46 ar
  41   23   59 1
  42   24   25 ar
  43   24   60 1
  44   25   26 ar
  45   25   61 1
  46   26   27 ar
  47   26   29 1
  48   27   28 ar
  49   27   62 1
  50   28   47 1
  51   29   30 1
  52   29   34 2
  53   29   35 2
  54   30   31 1
  55   30   63 1
  56   30   64 1
  57   31   32 1
  58   31   65 1
  59   31   66 1
  60   32   33 1
  61   33   67 1
  62   33   68 1
  63   33   69 1
  64   36   37 1
  65   36   70 1
  66   36   71 1
  67   37   38 1
  68   37   40 1
  69   37   72 1
  70   38   39 1
  71   38   73 1
  72   39   41 1
  73   39   74 1
  74   40   75 1
  75   40   76 1
  76   40   77 1
  77   41   78 1
  78   41   79 1
  79   41   80 1
  80   43   44 ar
  81   43   81 1
  82   44   45 ar
  83   44   82 1
  84   45   46 ar
  85   45   83 1
  86   46   84 1
  87   47   48 1
  88   47   49 1
  89   47   50 1

#	End of record

