#	Name: ASD00170253
#	Creating user name:	WinNT
#	Creation time:	15. 06. 2019 18:31

#	Modifying user name:	WinNT
#	Modification time:	15. 06. 2019 18:31

#	Program:	/corina/corina34_cracker 3.40 0067  02.08.2006

@<TRIPOS>MOLECULE
ASD00170253
  41   43    0    0    0
SMALL
NO_CHARGES


@<TRIPOS>ATOM
   1 C1            -0.0160     1.3307     0.0094 C.2     
   2 C2             0.0021    -0.0041     0.0020 C.2     
   3 C3            -1.3366    -0.5759     0.0230 C.2     
   4 C4            -2.3281     0.3644     0.0386 C.2     
   5 S5            -1.6684     1.9328     0.0360 S.3     
   6 N6            -3.6806     0.0805     0.0576 N.pl3   
   7 C7            -1.5953    -2.0173     0.0265 C.2     
   8 N8            -1.7328    -2.6801    -1.1389 N.am    
   9 O9            -1.6861    -2.6168     1.0821 O.2     
  10 C10           -1.9916    -4.1221    -1.1354 C.3     
  11 C11           -2.1028    -4.6160    -2.5548 C.ar    
  12 C12           -0.9754    -5.0539    -3.2243 C.ar    
  13 C13           -1.0768    -5.5070    -4.5261 C.ar    
  14 C14           -2.3069    -5.5222    -5.1592 C.ar    
  15 C15           -3.4348    -5.0838    -4.4886 C.ar    
  16 C16           -3.3331    -4.6362    -3.1849 C.ar    
  17 C17            1.2104     2.2194     0.0024 C.3     
  18 C18            2.1910     1.7493    -1.0707 C.3     
  19 C19            3.1476     0.7265    -0.4641 C.3     
  20 C20            2.4230    -0.0923     0.6020 C.3     
  21 C21            1.2629    -0.8506    -0.0356 C.3     
  22 Cl22          -2.4349    -6.0906    -6.7945 Cl      
  23 H23           -3.9826    -0.8412     0.0605 H       
  24 H24           -4.3277     0.8030     0.0679 H       
  25 H25           -1.6604    -2.2025    -1.9800 H       
  26 H26           -1.1717    -4.6371    -0.6346 H       
  27 H27           -2.9235    -4.3227    -0.6068 H       
  28 H28           -0.0152    -5.0417    -2.7301 H       
  29 H29           -0.1959    -5.8488    -5.0492 H       
  30 H30           -4.3953    -5.0954    -4.9823 H       
  31 H31           -4.2135    -4.2939    -2.6613 H       
  32 H32            0.9115     3.2467    -0.2059 H       
  33 H33            1.6940     2.1761     0.9783 H       
  34 H34            1.6399     1.2903    -1.8914 H       
  35 H35            2.7584     2.6018    -1.4440 H       
  36 H36            3.5106     0.0610    -1.2473 H       
  37 H37            3.9923     1.2450    -0.0106 H       
  38 H38            3.1185    -0.8024     1.0493 H       
  39 H39            2.0397     0.5751     1.3739 H       
  40 H40            1.0924    -1.7774     0.5121 H       
  41 H41            1.5099    -1.0851    -1.0710 H       
@<TRIPOS>BOND
   1    1    2 2
   2    1   17 1
   3    1    5 1
   4    2    3 1
   5    2   21 1
   6    3    4 2
   7    3    7 1
   8    4    5 1
   9    4    6 1
  10    6   23 1
  11    6   24 1
  12    7    8 am
  13    7    9 2
  14    8   10 1
  15    8   25 1
  16   10   11 1
  17   10   26 1
  18   10   27 1
  19   11   12 ar
  20   11   16 ar
  21   12   13 ar
  22   12   28 1
  23   13   14 ar
  24   13   29 1
  25   14   15 ar
  26   14   22 1
  27   15   16 ar
  28   15   30 1
  29   16   31 1
  30   17   18 1
  31   17   32 1
  32   17   33 1
  33   18   19 1
  34   18   34 1
  35   18   35 1
  36   19   20 1
  37   19   36 1
  38   19   37 1
  39   20   21 1
  40   20   38 1
  41   20   39 1
  42   21   40 1
  43   21   41 1

#	End of record

