#	Name: ASD08710084
#	Creating user name:	WinNT
#	Creation time:	15. 06. 2019 21:19

#	Modifying user name:	WinNT
#	Modification time:	15. 06. 2019 21:19

#	Program:	/corina/corina34_cracker 3.40 0067  02.08.2006

@<TRIPOS>MOLECULE
ASD08710084
  49   51    0    0    0
SMALL
NO_CHARGES


@<TRIPOS>ATOM
   1 N1            -0.2946     1.5285     0.4517 N.am    
   2 C2            -0.2247     0.0614     0.4022 C.3     
   3 C3             0.9380    -0.3432    -0.5125 C.3     
   4 N4             2.1348     0.4098    -0.1118 N.am    
   5 C5             2.0648     1.8769    -0.0623 C.3     
   6 C6             0.9021     2.2816     0.8524 C.3     
   7 S7             3.5369    -0.3807     0.2775 S.o2    
   8 O8             4.2747     0.4995     1.1142 O.2     
   9 O9             3.1615    -1.6938     0.6700 O.2     
  10 C10            4.4685    -0.5527    -1.2081 C.ar    
  11 C11            5.3671     0.4304    -1.5781 C.ar    
  12 C12            6.0980     0.2955    -2.7437 C.ar    
  13 C13            5.9305    -0.8226    -3.5390 C.ar    
  14 C14            5.0325    -1.8061    -3.1686 C.ar    
  15 C15            4.3048    -1.6733    -2.0008 C.ar    
  16 C16            6.7265    -0.9692    -4.8102 C.3     
  17 F17            7.9268    -1.6331    -4.5349 F       
  18 F18            5.9877    -1.7081    -5.7405 F       
  19 F19            7.0040     0.2975    -5.3353 F       
  20 C20           -1.5354    -0.4967    -0.1559 C.3     
  21 C21           -1.4342     2.1721     0.1300 C.2     
  22 O22           -2.3816     1.5487    -0.3079 O.2     
  23 C23           -1.1417     4.2299     1.5100 C.ar    
  24 C24           -1.5322     3.6352     0.3094 C.ar    
  25 C25           -2.0181     4.4480    -0.7232 C.ar    
  26 C26           -2.0899     5.8109    -0.5063 C.ar    
  27 C27           -1.6823     6.3259     0.7155 C.ar    
  28 N28           -1.2281     5.5337     1.6711 N.ar    
  29 C29           -2.4512     3.8511    -2.0375 C.3     
  30 F30           -1.7507     7.6577     0.9321 F       
  31 H31           -0.0548    -0.3308     1.4050 H       
  32 H32            1.1276    -1.4119    -0.4121 H       
  33 H33            0.6880    -0.1092    -1.5472 H       
  34 H34            2.9986     2.2745     0.3354 H       
  35 H35            1.8950     2.2691    -1.0650 H       
  36 H36            0.7125     3.3502     0.7520 H       
  37 H37            1.1522     2.0475     1.8872 H       
  38 H38            5.4980     1.3040    -0.9567 H       
  39 H39            6.7995     1.0639    -3.0331 H       
  40 H40            4.9014    -2.6796    -3.7901 H       
  41 H41            3.6059    -2.4434    -1.7094 H       
  42 H42           -1.7106    -0.0865    -1.1505 H       
  43 H43           -1.4709    -1.5830    -0.2172 H       
  44 H44           -2.3584    -0.2181     0.5022 H       
  45 H45           -0.7695     3.6146     2.3158 H       
  46 H46           -2.4590     6.4681    -1.2798 H       
  47 H47           -3.5249     3.6646    -2.0156 H       
  48 H48           -2.2193     4.5449    -2.8456 H       
  49 H49           -1.9225     2.9122    -2.2018 H       
@<TRIPOS>BOND
   1    1    2 1
   2    1    6 1
   3    1   21 am
   4    2    3 1
   5    2   20 1
   6    2   31 1
   7    3    4 1
   8    3   32 1
   9    3   33 1
  10    4    5 1
  11    4    7 am
  12    5    6 1
  13    5   34 1
  14    5   35 1
  15    6   36 1
  16    6   37 1
  17    7    8 2
  18    7    9 2
  19    7   10 1
  20   10   11 ar
  21   10   15 ar
  22   11   12 ar
  23   11   38 1
  24   12   13 ar
  25   12   39 1
  26   13   14 ar
  27   13   16 1
  28   14   15 ar
  29   14   40 1
  30   15   41 1
  31   16   17 1
  32   16   18 1
  33   16   19 1
  34   20   42 1
  35   20   43 1
  36   20   44 1
  37   21   22 2
  38   21   24 1
  39   23   24 ar
  40   23   28 ar
  41   23   45 1
  42   24   25 ar
  43   25   26 ar
  44   25   29 1
  45   26   27 ar
  46   26   46 1
  47   27   28 ar
  48   27   30 1
  49   29   47 1
  50   29   48 1
  51   29   49 1

#	End of record

