#	Name: ASD06610009
#	Creating user name:	WinNT
#	Creation time:	15. 06. 2019 21:07

#	Modifying user name:	WinNT
#	Modification time:	15. 06. 2019 21:07

#	Program:	/corina/corina34_cracker 3.40 0067  02.08.2006

@<TRIPOS>MOLECULE
ASD06610009
 337  338    0    0    0
SMALL
NO_CHARGES


@<TRIPOS>ATOM
   1 C1            -2.4017    -5.8532    -3.1176 C.2     
   2 O2            -2.2667    -6.9284    -3.6623 O.2     
   3 N3            -0.1040    -6.1207    -2.3842 N.am    
   4 C4            -1.2116    -5.1685    -2.4964 C.3     
   5 C5            -0.7847    -3.9909    -3.3749 C.3     
   6 C6             0.4080    -3.2806    -2.7316 C.3     
   7 O7            -0.4119    -4.4717    -4.6679 O.3     
   8 C8            -5.7673    -4.8180    -4.0996 C.2     
   9 O9            -5.6573    -3.7054    -3.6295 O.2     
  10 N10           -3.6150    -5.2681    -3.0728 N.am    
  11 C11           -4.7491    -5.8791    -3.7705 C.3     
  12 C12           -5.3894    -6.9392    -2.8720 C.3     
  13 C13           -4.3966    -8.0805    -2.6426 C.3     
  14 C14           -5.7632    -6.3105    -1.5282 C.3     
  15 C15           -9.1231    -4.8009    -5.5493 C.2     
  16 O16           -9.1578    -6.0110    -5.6232 O.2     
  17 N17           -6.8002    -5.1053    -4.9163 N.am    
  18 C18           -7.8449    -4.1065    -5.1552 C.3     
  19 C19           -7.4059    -3.1686    -6.2815 C.3     
  20 C20           -6.1977    -2.3839    -5.8395 C.ar    
  21 C21           -4.9285    -2.8802    -6.0710 C.ar    
  22 C22           -3.8202    -2.1604    -5.6655 C.ar    
  23 C23           -3.9812    -0.9440    -5.0288 C.ar    
  24 C24           -5.2504    -0.4472    -4.7981 C.ar    
  25 C25           -6.3585    -1.1650    -5.2075 C.ar    
  26 C26          -12.3225    -3.8121    -7.0151 C.2     
  27 O27          -11.9308    -2.6888    -7.2510 O.2     
  28 N28          -10.2275    -4.0772    -5.8195 N.am    
  29 C29          -11.4700    -4.7523    -6.2025 C.3     
  30 C30          -12.2314    -5.1721    -4.9436 C.3     
  31 C31          -11.4188    -6.2213    -4.1822 C.3     
  32 C32          -12.1802    -6.6411    -2.9233 C.3     
  33 N33          -11.4021    -7.6458    -2.1943 N.pl3   
  34 C34          -11.8891    -8.1751    -1.0225 C.2     
  35 N35          -11.1968    -9.0689    -0.3739 N.2     
  36 N36          -13.1062    -7.7615    -0.5349 N.pl3   
  37 C37          -15.7962    -3.7086    -8.1491 C.2     
  38 O38          -16.1049    -4.6650    -7.4702 O.2     
  39 N39          -13.5203    -4.2196    -7.4797 N.am    
  40 C40          -14.3491    -3.3056    -8.2696 C.3     
  41 C41          -13.9223    -3.3699    -9.7375 C.3     
  42 O42          -14.1961    -4.6728   -10.2566 O.3     
  43 C43          -18.9120    -2.9168    -9.8892 C.2     
  44 O44          -18.3339    -2.3070   -10.7637 O.2     
  45 N45          -16.7474    -3.0061    -8.7958 N.am    
  46 C46          -18.1542    -3.3978    -8.6786 C.3     
  47 C47          -18.7549    -2.7710    -7.4187 C.3     
  48 O48          -18.7686    -1.3486    -7.5544 O.3     
  49 C49          -22.4246    -2.5302   -10.8247 C.2     
  50 O50          -22.8089    -2.7776    -9.7013 O.2     
  51 N51          -20.2322    -3.1645   -10.0000 N.am    
  52 C52          -20.9689    -2.6970   -11.1769 C.3     
  53 C53          -20.8312    -3.7214   -12.3049 C.3     
  54 C54          -19.3687    -3.7992   -12.7475 C.3     
  55 C55          -19.2310    -4.8236   -13.8755 C.3     
  56 N56          -17.8306    -4.8981   -14.2993 N.pl3   
  57 C57          -17.4622    -5.7572   -15.3075 C.2     
  58 N58          -16.2162    -5.8234   -15.6845 N.2     
  59 N59          -18.4080    -6.5464   -15.9179 N.pl3   
  60 C60          -25.5511    -2.0722   -12.6628 C.2     
  61 O61          -25.0176    -2.2785   -13.7322 O.2     
  62 N62          -23.2995    -2.1063   -11.7581 N.am    
  63 C63          -24.7147    -1.9442   -11.4157 C.3     
  64 C64          -24.9341    -0.5635   -10.7940 C.3     
  65 C65          -29.0048    -1.3430   -13.6130 C.2     
  66 O66          -29.2299    -0.7690   -12.5686 O.2     
  67 N67          -26.8920    -1.9574   -12.5896 N.am    
  68 C68          -27.7050    -2.0818   -13.8019 C.3     
  69 C69          -27.9932    -3.5597   -14.0732 C.3     
  70 C70          -26.6835    -4.2853   -14.3880 C.3     
  71 C71          -26.9717    -5.7632   -14.6593 C.3     
  72 C72          -25.6620    -6.4888   -14.9741 C.3     
  73 N73          -25.9387    -7.9078   -15.2346 N.3     
  74 C74          -32.2310    -1.1937   -15.3254 C.2     
  75 O75          -31.9515    -2.1238   -16.0518 O.2     
  76 N76          -29.9172    -1.3201   -14.6047 N.am    
  77 C77          -31.1808    -0.6018   -14.4211 C.3     
  78 C78          -30.9829     0.8752   -14.7676 C.3     
  79 C79          -30.0096     1.5070   -13.7705 C.3     
  80 C80          -29.8117     2.9840   -14.1170 C.3     
  81 N81          -28.8797     3.5890   -13.1622 N.pl3   
  82 C82          -28.5468     4.9182   -13.2746 C.2     
  83 N83          -27.7176     5.4565   -12.4251 N.2     
  84 N84          -29.0886     5.6796   -14.2830 N.pl3   
  85 C85          -35.5566    -0.2282   -16.4966 C.2     
  86 O86          -35.4646     0.8817   -16.0164 O.2     
  87 N87          -33.4809    -0.6893   -15.3270 N.am    
  88 C88          -34.5018    -1.2646   -16.2062 C.3     
  89 C89          -35.1466    -2.4697   -15.5186 C.3     
  90 C90          -34.1016    -3.5723   -15.3362 C.3     
  91 C91          -34.7463    -4.7774   -14.6486 C.3     
  92 N92          -33.7457    -5.8331   -14.4740 N.pl3   
  93 C93          -34.0959    -7.0199   -13.8747 C.2     
  94 N94          -33.2056    -7.9591   -13.7193 N.2     
  95 N95          -35.3852    -7.2159   -13.4393 N.pl3   
  96 C96          -38.9234    -0.2132   -17.9205 C.2     
  97 O97          -38.9844    -1.4244   -17.9319 O.2     
  98 N98          -36.6022    -0.5347   -17.2898 N.am    
  99 C99          -37.6276     0.4728   -17.5721 C.3     
 100 C100         -37.1784     1.3420   -18.7483 C.3     
 101 O101         -37.0997     0.5415   -19.9294 O.3     
 102 C102         -42.1135     0.7679   -19.4117 C.2     
 103 O103         -41.7002     1.8689   -19.7079 O.2     
 104 N104         -40.0145     0.5193   -18.2194 N.am    
 105 C105         -41.2742    -0.1475   -18.5581 C.3     
 106 C106         -42.0336    -0.4857   -17.2737 C.3     
 107 C107         -45.0086     2.0926   -19.6053 C.2     
 108 O108         -44.8863     1.9069   -18.4131 O.2     
 109 N109         -43.3235     0.3630   -19.8458 N.am    
 110 C110         -44.1861     1.2912   -20.5811 C.3     
 111 C111         -45.1163     0.5008   -21.5037 C.3     
 112 C112         -44.3024    -0.1819   -22.5725 C.2     
 113 O113         -43.0962    -0.1152   -22.5484 O.2     
 114 O114         -44.9174    -0.8641   -23.5513 O.3     
 115 C115         -47.9713     4.1744   -19.6400 C.2     
 116 O116         -48.3056     3.7572   -20.7286 O.2     
 117 N117         -45.8802     3.0159   -20.0576 N.am    
 118 C118         -46.5921     3.8772   -19.1102 C.3     
 119 C119         -45.8209     5.1866   -18.9325 C.3     
 120 C120         -45.5605     5.8151   -20.3029 C.3     
 121 C121         -46.8866     6.2692   -20.9161 C.3     
 122 C122         -44.4867     4.9027   -18.2397 C.3     
 123 C123         -50.7717     6.3576   -18.7714 C.2     
 124 O124         -50.0853     7.0405   -18.0410 O.2     
 125 N125         -48.8332     4.9037   -18.9040 N.am    
 126 C126         -50.2127     5.0885   -19.3612 C.3     
 127 C127         -51.0629     3.8990   -18.9106 C.3     
 128 C128         -50.5797     2.6474   -19.5970 C.ar    
 129 C129         -49.5979     1.8719   -19.0091 C.ar    
 130 C130         -49.1546     0.7239   -19.6387 C.ar    
 131 C131         -49.6934     0.3511   -20.8559 C.ar    
 132 C132         -50.6759     1.1261   -21.4433 C.ar    
 133 C133         -51.1222     2.2718   -20.8116 C.ar    
 134 C134         -53.1253     7.6838   -17.1071 C.2     
 135 O135         -53.0676     6.5657   -16.6527 O.2     
 136 N136         -52.0343     6.7337   -19.0556 N.am    
 137 C137         -52.5777     7.9675   -18.4822 C.3     
 138 C138         -53.6993     8.4958   -19.3788 C.3     
 139 C139         -54.1822     9.8473   -18.8486 C.3     
 140 C140         -55.2152    10.4338   -19.8129 C.3     
 141 C141         -54.8630     7.5025   -19.3786 C.3     
 142 O142         -53.6771     8.6732   -16.3872 O.3     
 143 C143           0.8504    -5.9373    -1.4504 C.2     
 144 O144           0.7923    -4.9840    -0.7030 O.2     
 145 C145          16.6353   -10.8228     7.3904 C.3     
 146 C146          15.4785    -9.8283     7.2732 C.3     
 147 C147          14.5430   -10.2648     6.1439 C.3     
 148 C148          13.3863    -9.2703     6.0267 C.3     
 149 C149          12.4508    -9.7068     4.8974 C.3     
 150 C150          11.2941    -8.7123     4.7802 C.3     
 151 C151          10.3586    -9.1489     3.6509 C.3     
 152 C152           9.2019    -8.1543     3.5337 C.3     
 153 C153           8.2664    -8.5909     2.4044 C.3     
 154 C154           7.1097    -7.5964     2.2873 C.3     
 155 C155           6.1742    -8.0329     1.1580 C.3     
 156 C156           5.0175    -7.0384     1.0408 C.3     
 157 C157           4.0820    -7.4749    -0.0885 C.3     
 158 C158           2.9252    -6.4804    -0.2057 C.3     
 159 C159           1.9898    -6.9169    -1.3350 C.3     
 160 H160          -0.0575    -6.8833    -2.9820 H       
 161 H161          -1.4790    -4.8037    -1.5047 H       
 162 H162          -1.6146    -3.2911    -3.4729 H       
 163 H163           1.2729    -3.9439    -2.7388 H       
 164 H164           0.6391    -2.3762    -3.2943 H       
 165 H165           0.1617    -3.0158    -1.7033 H       
 166 H166          -1.1212    -4.9339    -5.1352 H       
 167 H167          -3.7373    -4.4424    -2.5787 H       
 168 H168          -4.4003    -6.3461    -4.6915 H       
 169 H169          -6.2866    -7.3291    -3.3528 H       
 170 H170          -3.5522    -7.7155    -2.0580 H       
 171 H171          -4.8903    -8.8884    -2.1024 H       
 172 H172          -4.0402    -8.4507    -3.6038 H       
 173 H173          -6.4705    -5.4974    -1.6916 H       
 174 H174          -6.2194    -7.0657    -0.8881 H       
 175 H175          -4.8661    -5.9205    -1.0474 H       
 176 H176          -6.8518    -5.9734    -5.3459 H       
 177 H177          -8.0106    -3.5293    -4.2456 H       
 178 H178          -7.1549    -3.7550    -7.1654 H       
 179 H179          -8.2181    -2.4818    -6.5197 H       
 180 H180          -4.8027    -3.8306    -6.5684 H       
 181 H181          -2.8286    -2.5485    -5.8457 H       
 182 H182          -3.1153    -0.3819    -4.7113 H       
 183 H183          -5.3761     0.5030    -4.3004 H       
 184 H184          -7.3501    -0.7752    -5.0305 H       
 185 H185         -10.1997    -3.1094    -5.7603 H       
 186 H186         -11.2354    -5.6355    -6.7967 H       
 187 H187         -12.3882    -4.3016    -4.3066 H       
 188 H188         -13.1958    -5.5941    -5.2260 H       
 189 H189         -11.2619    -7.0918    -4.8192 H       
 190 H190         -10.4543    -5.7993    -3.8997 H       
 191 H191         -12.3371    -5.7706    -2.2863 H       
 192 H192         -13.1447    -7.0632    -3.2057 H       
 193 H193         -10.5434    -7.9376    -2.5383 H       
 194 H194         -11.5404    -9.4423     0.4528 H       
 195 H195         -13.6213    -7.0962    -1.0176 H       
 196 H196         -13.4497    -8.1349     0.2918 H       
 197 H197         -13.8336    -5.1180    -7.2910 H       
 198 H198         -14.2231    -2.2884    -7.8988 H       
 199 H199         -14.4772    -2.6266   -10.3100 H       
 200 H200         -12.8545    -3.1650    -9.8147 H       
 201 H201         -13.9503    -4.7860   -11.1849 H       
 202 H202         -16.5005    -2.2411    -9.3387 H       
 203 H203         -18.2248    -4.4835    -8.6134 H       
 204 H204         -19.7741    -3.1329    -7.2834 H       
 205 H205         -18.1532    -3.0477    -6.5530 H       
 206 H206         -19.1372    -0.8841    -6.7905 H       
 207 H207         -20.6946    -3.6523    -9.3006 H       
 208 H208         -20.5622    -1.7399   -11.5036 H       
 209 H209         -21.1557    -4.6993   -11.9492 H       
 210 H210         -21.4506    -3.4179   -13.1490 H       
 211 H211         -19.0442    -2.8213   -13.1032 H       
 212 H212         -18.7493    -4.1027   -11.9035 H       
 213 H213         -19.5554    -5.8015   -13.5199 H       
 214 H214         -19.8503    -4.5201   -14.7196 H       
 215 H215         -17.1632    -4.3412   -13.8686 H       
 216 H216         -15.9563    -6.4296   -16.3958 H       
 217 H217         -19.3352    -6.4971   -15.6374 H       
 218 H218         -18.1481    -7.1525   -16.6292 H       
 219 H219         -22.9922    -1.9085   -12.6566 H       
 220 H220         -25.0064    -2.7146   -10.7020 H       
 221 H221         -24.6424     0.2069   -11.5078 H       
 222 H222         -25.9870    -0.4429   -10.5392 H       
 223 H223         -24.3291    -0.4709    -9.8920 H       
 224 H224         -27.3186    -1.7924   -11.7343 H       
 225 H225         -27.1645    -1.6559   -14.6472 H       
 226 H226         -28.4542    -4.0076   -13.1929 H       
 227 H227         -28.6706    -3.6478   -14.9226 H       
 228 H228         -26.2226    -3.8375   -15.2684 H       
 229 H229         -26.0061    -4.1972   -13.5386 H       
 230 H230         -27.4327    -6.2111   -13.7790 H       
 231 H231         -27.6491    -5.8513   -15.5087 H       
 232 H232         -25.2011    -6.0410   -15.8545 H       
 233 H233         -24.9846    -6.4007   -14.1248 H       
 234 H234         -25.0888    -8.4092   -15.4453 H       
 235 H235         -26.4246    -8.3301   -14.4576 H       
 236 H236         -29.7373    -1.7792   -15.4400 H       
 237 H237         -31.5023    -0.6917   -13.3835 H       
 238 H238         -30.5769     0.9607   -15.7756 H       
 239 H239         -31.9413     1.3919   -14.7170 H       
 240 H240         -30.4156     1.4215   -12.7625 H       
 241 H241         -29.0511     0.9903   -13.8211 H       
 242 H242         -29.4056     3.0695   -15.1250 H       
 243 H243         -30.7701     3.5007   -14.0664 H       
 244 H244         -28.4975     3.0518   -12.4507 H       
 245 H245         -27.4828     6.3943   -12.5044 H       
 246 H246         -29.7056     5.2791   -14.9152 H       
 247 H247         -28.8537     6.6174   -14.3623 H       
 248 H248         -33.7044     0.0546   -14.7461 H       
 249 H249         -34.0391    -1.5837   -17.1401 H       
 250 H250         -35.5315    -2.1691   -14.5441 H       
 251 H251         -35.9656    -2.8435   -16.1332 H       
 252 H252         -33.7167    -3.8729   -16.3107 H       
 253 H253         -33.2826    -3.1985   -14.7216 H       
 254 H254         -35.1312    -4.4768   -13.6742 H       
 255 H255         -35.5653    -5.1512   -15.2632 H       
 256 H256         -32.8361    -5.6948   -14.7812 H       
 257 H257         -33.4527    -8.7964   -13.2965 H       
 258 H258         -36.0477    -6.5169   -13.5550 H       
 259 H259         -35.6322    -8.0532   -13.0165 H       
 260 H260         -36.6758    -1.4224   -17.6738 H       
 261 H261         -37.7733     1.0994   -16.6921 H       
 262 H262         -37.8982     2.1461   -18.9017 H       
 263 H263         -36.1986     1.7678   -18.5321 H       
 264 H264         -36.8201     1.0284   -20.7167 H       
 265 H265         -39.9657     1.4881   -18.2103 H       
 266 H266         -41.0633    -1.0649   -19.1078 H       
 267 H267         -42.9709    -0.9819   -17.5256 H       
 268 H268         -41.4266    -1.1478   -16.6563 H       
 269 H269         -42.2445     0.4316   -16.7240 H       
 270 H270         -43.6232    -0.5429   -19.6715 H       
 271 H271         -43.5704     1.9651   -21.1768 H       
 272 H272         -45.6540    -0.2482   -20.9224 H       
 273 H273         -45.8300     1.1806   -21.9691 H       
 274 H274         -44.3533    -1.2851   -24.2144 H       
 275 H275         -46.0361     3.1101   -21.0103 H       
 276 H276         -46.6737     3.3702   -18.1487 H       
 277 H277         -46.4077     5.8740   -18.3231 H       
 278 H278         -44.8997     6.6745   -20.1889 H       
 279 H279         -45.0908     5.0799   -20.9564 H       
 280 H280         -47.4754     6.7919   -20.1623 H       
 281 H281         -46.6894     6.9398   -21.7525 H       
 282 H282         -47.4398     5.3994   -21.2704 H       
 283 H283         -43.8573     4.3015   -18.8958 H       
 284 H284         -43.9849     5.8445   -18.0178 H       
 285 H285         -44.6673     4.3598   -17.3119 H       
 286 H286         -48.5401     5.3063   -18.0716 H       
 287 H287         -50.2290     5.1554   -20.4490 H       
 288 H288         -50.9754     3.7781   -17.8309 H       
 289 H289         -52.1057     4.0777   -19.1729 H       
 290 H290         -49.1769     2.1632   -18.0582 H       
 291 H291         -48.3870     0.1184   -19.1798 H       
 292 H292         -49.3465    -0.5454   -21.3482 H       
 293 H293         -51.0966     0.8350   -22.3945 H       
 294 H294         -51.8924     2.8753   -21.2688 H       
 295 H295         -52.5832     6.1875   -19.6397 H       
 296 H296         -51.7869     8.7143   -18.4114 H       
 297 H297         -53.3252     8.6169   -20.3954 H       
 298 H298         -54.6373     9.7112   -17.8675 H       
 299 H299         -53.3354    10.5284   -18.7650 H       
 300 H300         -54.7601    10.5699   -20.7940 H       
 301 H301         -56.0620     9.7527   -19.8966 H       
 302 H302         -55.5592    11.3966   -19.4353 H       
 303 H303         -55.2371     7.3813   -18.3619 H       
 304 H304         -55.6620     7.8788   -20.0173 H       
 305 H305         -54.5190     6.5396   -19.7562 H       
 306 H306         -54.0146     8.4428   -15.5108 H       
 307 H307          17.3017   -10.5118     8.1949 H       
 308 H308          16.2406   -11.8152     7.6086 H       
 309 H309          17.1876   -10.8500     6.4511 H       
 310 H310          14.9261    -9.8012     8.2125 H       
 311 H311          15.8732    -8.8360     7.0550 H       
 312 H312          15.0954   -10.2920     5.2046 H       
 313 H313          14.1484   -11.2572     6.3621 H       
 314 H314          12.8339    -9.2432     6.9660 H       
 315 H315          13.7809    -8.2780     5.8085 H       
 316 H316          13.0032    -9.7340     3.9581 H       
 317 H317          12.0562   -10.6992     5.1156 H       
 318 H318          10.7417    -8.6852     5.7195 H       
 319 H319          11.6887    -7.7200     4.5620 H       
 320 H320          10.9110    -9.1760     2.7116 H       
 321 H321           9.9640   -10.1412     3.8692 H       
 322 H322           8.6495    -8.1272     4.4730 H       
 323 H323           9.5965    -7.1620     3.3155 H       
 324 H324           8.8188    -8.6180     1.4652 H       
 325 H325           7.8718    -9.5832     2.6227 H       
 326 H326           6.5573    -7.5692     3.2266 H       
 327 H327           7.5043    -6.6040     2.0690 H       
 328 H328           6.7266    -8.0600     0.2187 H       
 329 H329           5.7796    -9.0252     1.3762 H       
 330 H330           4.4651    -7.0112     1.9801 H       
 331 H331           5.4121    -6.0460     0.8225 H       
 332 H332           4.6344    -7.5020    -1.0278 H       
 333 H333           3.6874    -8.4672     0.1297 H       
 334 H334           2.3729    -6.4532     0.7336 H       
 335 H335           3.3199    -5.4880    -0.4239 H       
 336 H336           1.5951    -7.9092    -1.1168 H       
 337 H337           2.5422    -6.9440    -2.2743 H       
@<TRIPOS>BOND
   1    1    2 2
   2    1    4 1
   3    1   10 am
   4    3  143 am
   5    3    4 1
   6    3  160 1
   7    4    5 1
   8    4  161 1
   9    5    6 1
  10    5    7 1
  11    5  162 1
  12    6  163 1
  13    6  164 1
  14    6  165 1
  15    7  166 1
  16    8    9 2
  17    8   11 1
  18    8   17 am
  19   10   11 1
  20   10  167 1
  21   11   12 1
  22   11  168 1
  23   12   13 1
  24   12   14 1
  25   12  169 1
  26   13  170 1
  27   13  171 1
  28   13  172 1
  29   14  173 1
  30   14  174 1
  31   14  175 1
  32   15   16 2
  33   15   18 1
  34   15   28 am
  35   17   18 1
  36   17  176 1
  37   18   19 1
  38   18  177 1
  39   19   20 1
  40   19  178 1
  41   19  179 1
  42   20   21 ar
  43   20   25 ar
  44   21   22 ar
  45   21  180 1
  46   22   23 ar
  47   22  181 1
  48   23   24 ar
  49   23  182 1
  50   24   25 ar
  51   24  183 1
  52   25  184 1
  53   26   27 2
  54   26   29 1
  55   26   39 am
  56   28   29 1
  57   28  185 1
  58   29   30 1
  59   29  186 1
  60   30   31 1
  61   30  187 1
  62   30  188 1
  63   31   32 1
  64   31  189 1
  65   31  190 1
  66   32   33 1
  67   32  191 1
  68   32  192 1
  69   33   34 1
  70   33  193 1
  71   34   35 2
  72   34   36 1
  73   35  194 1
  74   36  195 1
  75   36  196 1
  76   37   38 2
  77   37   40 1
  78   37   45 am
  79   39   40 1
  80   39  197 1
  81   40   41 1
  82   40  198 1
  83   41   42 1
  84   41  199 1
  85   41  200 1
  86   42  201 1
  87   43   44 2
  88   43   46 1
  89   43   51 am
  90   45   46 1
  91   45  202 1
  92   46   47 1
  93   46  203 1
  94   47   48 1
  95   47  204 1
  96   47  205 1
  97   48  206 1
  98   49   50 2
  99   49   52 1
 100   49   62 am
 101   51   52 1
 102   51  207 1
 103   52   53 1
 104   52  208 1
 105   53   54 1
 106   53  209 1
 107   53  210 1
 108   54   55 1
 109   54  211 1
 110   54  212 1
 111   55   56 1
 112   55  213 1
 113   55  214 1
 114   56   57 1
 115   56  215 1
 116   57   58 2
 117   57   59 1
 118   58  216 1
 119   59  217 1
 120   59  218 1
 121   60   61 2
 122   60   63 1
 123   60   67 am
 124   62   63 1
 125   62  219 1
 126   63   64 1
 127   63  220 1
 128   64  221 1
 129   64  222 1
 130   64  223 1
 131   65   66 2
 132   65   68 1
 133   65   76 am
 134   67   68 1
 135   67  224 1
 136   68   69 1
 137   68  225 1
 138   69   70 1
 139   69  226 1
 140   69  227 1
 141   70   71 1
 142   70  228 1
 143   70  229 1
 144   71   72 1
 145   71  230 1
 146   71  231 1
 147   72   73 1
 148   72  232 1
 149   72  233 1
 150   73  234 1
 151   73  235 1
 152   74   75 2
 153   74   77 1
 154   74   87 am
 155   76   77 1
 156   76  236 1
 157   77   78 1
 158   77  237 1
 159   78   79 1
 160   78  238 1
 161   78  239 1
 162   79   80 1
 163   79  240 1
 164   79  241 1
 165   80   81 1
 166   80  242 1
 167   80  243 1
 168   81   82 1
 169   81  244 1
 170   82   83 2
 171   82   84 1
 172   83  245 1
 173   84  246 1
 174   84  247 1
 175   85   86 2
 176   85   88 1
 177   85   98 am
 178   87   88 1
 179   87  248 1
 180   88   89 1
 181   88  249 1
 182   89   90 1
 183   89  250 1
 184   89  251 1
 185   90   91 1
 186   90  252 1
 187   90  253 1
 188   91   92 1
 189   91  254 1
 190   91  255 1
 191   92   93 1
 192   92  256 1
 193   93   94 2
 194   93   95 1
 195   94  257 1
 196   95  258 1
 197   95  259 1
 198   96   97 2
 199   96   99 1
 200   96  104 am
 201   98   99 1
 202   98  260 1
 203   99  100 1
 204   99  261 1
 205  100  101 1
 206  100  262 1
 207  100  263 1
 208  101  264 1
 209  102  103 2
 210  102  105 1
 211  102  109 am
 212  104  105 1
 213  104  265 1
 214  105  106 1
 215  105  266 1
 216  106  267 1
 217  106  268 1
 218  106  269 1
 219  107  108 2
 220  107  110 1
 221  107  117 am
 222  109  110 1
 223  109  270 1
 224  110  111 1
 225  110  271 1
 226  111  112 1
 227  111  272 1
 228  111  273 1
 229  112  113 2
 230  112  114 1
 231  114  274 1
 232  115  116 2
 233  115  118 1
 234  115  125 am
 235  117  118 1
 236  117  275 1
 237  118  119 1
 238  118  276 1
 239  119  120 1
 240  119  122 1
 241  119  277 1
 242  120  121 1
 243  120  278 1
 244  120  279 1
 245  121  280 1
 246  121  281 1
 247  121  282 1
 248  122  283 1
 249  122  284 1
 250  122  285 1
 251  123  124 2
 252  123  126 1
 253  123  136 am
 254  125  126 1
 255  125  286 1
 256  126  127 1
 257  126  287 1
 258  127  128 1
 259  127  288 1
 260  127  289 1
 261  128  129 ar
 262  128  133 ar
 263  129  130 ar
 264  129  290 1
 265  130  131 ar
 266  130  291 1
 267  131  132 ar
 268  131  292 1
 269  132  133 ar
 270  132  293 1
 271  133  294 1
 272  134  135 2
 273  134  137 1
 274  134  142 1
 275  136  137 1
 276  136  295 1
 277  137  138 1
 278  137  296 1
 279  138  139 1
 280  138  141 1
 281  138  297 1
 282  139  140 1
 283  139  298 1
 284  139  299 1
 285  140  300 1
 286  140  301 1
 287  140  302 1
 288  141  303 1
 289  141  304 1
 290  141  305 1
 291  142  306 1
 292  143  144 2
 293  143  159 1
 294  145  146 1
 295  145  307 1
 296  145  308 1
 297  145  309 1
 298  146  147 1
 299  146  310 1
 300  146  311 1
 301  147  148 1
 302  147  312 1
 303  147  313 1
 304  148  149 1
 305  148  314 1
 306  148  315 1
 307  149  150 1
 308  149  316 1
 309  149  317 1
 310  150  151 1
 311  150  318 1
 312  150  319 1
 313  151  152 1
 314  151  320 1
 315  151  321 1
 316  152  153 1
 317  152  322 1
 318  152  323 1
 319  153  154 1
 320  153  324 1
 321  153  325 1
 322  154  155 1
 323  154  326 1
 324  154  327 1
 325  155  156 1
 326  155  328 1
 327  155  329 1
 328  156  157 1
 329  156  330 1
 330  156  331 1
 331  157  158 1
 332  157  332 1
 333  157  333 1
 334  158  159 1
 335  158  334 1
 336  158  335 1
 337  159  336 1
 338  159  337 1

#	End of record

