#	Name: ASD00069079
#	Creating user name:	WinNT
#	Creation time:	15. 06. 2019 18:29

#	Modifying user name:	WinNT
#	Modification time:	15. 06. 2019 18:29

#	Program:	/corina/corina34_cracker 3.40 0067  02.08.2006

@<TRIPOS>MOLECULE
ASD00069079
  44   48    0    0    0
SMALL
NO_CHARGES


@<TRIPOS>ATOM
   1 C1            -0.0168     1.3905     0.0097 C.ar    
   2 C2             0.0021    -0.0041     0.0020 C.ar    
   3 C3             1.2049    -0.6845    -0.0127 C.ar    
   4 C4             2.4016     0.0348    -0.0203 C.ar    
   5 C5             2.3723     1.4409    -0.0130 C.ar    
   6 C6             1.1475     2.1037     0.0024 C.ar    
   7 C7             3.8186    -0.3486    -0.0356 C.2     
   8 N8             4.5274     0.7571    -0.0366 N.2     
   9 N9             3.6781     1.8678    -0.0231 N.pl3   
  10 C10            4.3498    -1.7256    -0.0475 C.2     
  11 N11            3.6205    -2.8160    -0.0466 N.2     
  12 N12            5.6785    -2.0576    -0.0671 N.pl3   
  13 N13           -1.2015    -0.7170     0.0097 N.pl3   
  14 C14            4.1124     3.2670    -0.0206 C.3     
  15 O15            5.1722     3.4353     0.9231 O.3     
  16 C16            5.6555     4.7763     1.0246 C.3     
  17 C17            6.2140     5.2199    -0.3300 C.3     
  18 C18            5.1169     5.0948    -1.3915 C.3     
  19 C19            4.6088     3.6500    -1.4172 C.3     
  20 C20            4.4283    -3.9042    -0.0595 C.ar    
  21 C21            5.7547    -3.4373    -0.0726 C.ar    
  22 C22            4.1845    -5.2815    -0.0644 C.ar    
  23 C23            5.2320    -6.1582    -0.0783 C.ar    
  24 C24            6.5408    -5.6973    -0.0872 C.ar    
  25 C25            6.8055    -4.3438    -0.0870 C.ar    
  26 H26           -0.9626     1.9119     0.0170 H       
  27 H27            1.2191    -1.7644    -0.0179 H       
  28 H28            1.1186     3.1833     0.0078 H       
  29 H29            6.4262    -1.4398    -0.0759 H       
  30 H30           -2.0469    -0.2415     0.0204 H       
  31 H31           -1.1907    -1.6870     0.0044 H       
  32 H32            3.2745     3.9072     0.2558 H       
  33 H33            4.8380     5.4363     1.3146 H       
  34 H34            6.4441     4.8226     1.7757 H       
  35 H35            6.5428     6.2572    -0.2664 H       
  36 H36            7.0577     4.5854    -0.6016 H       
  37 H37            4.2940     5.7664    -1.1464 H       
  38 H38            5.5234     5.3558    -2.3686 H       
  39 H39            5.4201     2.9838    -1.7107 H       
  40 H40            3.7896     3.5645    -2.1311 H       
  41 H41            3.1698    -5.6513    -0.0568 H       
  42 H42            5.0395    -7.2209    -0.0820 H       
  43 H43            7.3580    -6.4034    -0.0974 H       
  44 H44            7.8261    -3.9907    -0.0940 H       
@<TRIPOS>BOND
   1    1    2 ar
   2    1    6 ar
   3    1   26 1
   4    2    3 ar
   5    2   13 1
   6    3    4 ar
   7    3   27 1
   8    4    5 ar
   9    4    7 1
  10    5    6 ar
  11    5    9 1
  12    6   28 1
  13    7    8 2
  14    7   10 1
  15    8    9 1
  16    9   14 1
  17   10   11 2
  18   10   12 1
  19   11   20 1
  20   12   21 1
  21   12   29 1
  22   13   30 1
  23   13   31 1
  24   14   15 1
  25   14   19 1
  26   14   32 1
  27   15   16 1
  28   16   17 1
  29   16   33 1
  30   16   34 1
  31   17   18 1
  32   17   35 1
  33   17   36 1
  34   18   19 1
  35   18   37 1
  36   18   38 1
  37   19   39 1
  38   19   40 1
  39   20   21 ar
  40   20   22 ar
  41   21   25 ar
  42   22   23 ar
  43   22   41 1
  44   23   24 ar
  45   23   42 1
  46   24   25 ar
  47   24   43 1
  48   25   44 1

#	End of record

