#	Name: ASD01140556
#	Creating user name:	WinNT
#	Creation time:	15. 06. 2019 19:01

#	Modifying user name:	WinNT
#	Modification time:	15. 06. 2019 19:01

#	Program:	/corina/corina34_cracker 3.40 0067  02.08.2006

@<TRIPOS>MOLECULE
ASD01140556
  57   60    0    0    0
SMALL
NO_CHARGES


@<TRIPOS>ATOM
   1 C1            -0.3638     1.6914     0.0690 C.3     
   2 C2            -0.4471     0.1642     0.1016 C.3     
   3 C3             0.2688    -0.4118    -1.1218 C.3     
   4 C4             1.7369     0.0188    -1.1023 C.3     
   5 C5             1.8206     1.5460    -1.1353 C.3     
   6 C6             1.1038     2.1239     0.0870 C.3     
   7 C7             1.1853     3.6503     0.0476 C.3     
   8 C8             3.2881     1.9777    -1.1193 C.3     
   9 C9             3.3726     3.5052    -1.1504 C.3     
  10 C10            2.6607     4.0794     0.0752 C.3     
  11 C11            0.5442     5.7777     1.2569 C.3     
  12 C12            0.4076     4.2465     1.2156 C.3     
  13 C13            2.0249     6.0964     1.3548 C.3     
  14 C14            2.3889     7.5852     1.3345 C.3     
  15 C15            2.6883     5.5941     0.0438 C.3     
  16 C16            4.0623     6.2547     0.0702 C.3     
  17 C17            3.8663     7.5757     0.8553 C.3     
  18 C18            0.1847    -1.9392    -1.0899 C.3     
  19 H19            1.3433     1.9160    -2.0428 H       
  20 H20            3.1350     3.7079     0.9836 H       
  21 C21            2.6406     5.3972     2.5683 C.3     
  22 C22            2.2800     8.1796     2.7150 C.2     
  23 O23            3.2528     8.2312     3.4287 O.2     
  24 C24            0.9571     8.7096     3.2050 C.3     
  25 O25           -0.3548     0.0750    -2.3118 O.3     
  26 H26            0.7332     4.0031    -0.8793 H       
  27 H27            2.1239     5.9548    -0.8161 H       
  28 H28           -0.8404     2.0618    -0.8386 H       
  29 H29           -0.8741     2.1017     0.9404 H       
  30 H30            0.0293    -0.2064     1.0093 H       
  31 H31           -1.4929    -0.1430     0.0887 H       
  32 H32            2.2121    -0.3515    -0.1939 H       
  33 H33            2.2477    -0.3920    -1.9731 H       
  34 H34            1.5803     1.7560     0.9958 H       
  35 H35            3.7660     1.6060    -0.2129 H       
  36 H36            3.7967     1.5680    -1.9920 H       
  37 H37            4.4186     3.8116    -1.1399 H       
  38 H38            2.8939     3.8773    -2.0562 H       
  39 H39            0.1309     6.2116     0.3463 H       
  40 H40            0.0214     6.1733     2.1276 H       
  41 H41           -0.6456     3.9851     1.1133 H       
  42 H42            0.7885     3.8292     2.1477 H       
  43 H43            1.7583     8.1269     0.6295 H       
  44 H44            4.7798     5.6137     0.5824 H       
  45 H45            4.3998     6.4651    -0.9447 H       
  46 H46            4.0539     8.4294     0.2041 H       
  47 H47            4.5380     7.6042     1.7132 H       
  48 H48           -0.8612    -2.2459    -1.1032 H       
  49 H49            0.6947    -2.3494    -1.9615 H       
  50 H50            0.6607    -2.3104    -0.1822 H       
  51 H51            2.4680     4.3234     2.4953 H       
  52 H52            3.7128     5.5918     2.5945 H       
  53 H53            2.1798     5.7781     3.4797 H       
  54 H54            0.2031     8.5781     2.4290 H       
  55 H55            0.6564     8.1648     4.0999 H       
  56 H56            1.0550     9.7693     3.4406 H       
  57 H57           -1.2893    -0.1607    -2.3909 H       
@<TRIPOS>BOND
   1    1    2 1
   2    1    6 1
   3    1   28 1
   4    1   29 1
   5    2    3 1
   6    2   30 1
   7    2   31 1
   8    3    4 1
   9    3   18 1
  10    3   25 1
  11    4    5 1
  12    4   32 1
  13    4   33 1
  14    5    8 1
  15    5   19 1
  16    5    6 1
  17    6    7 1
  18    6   34 1
  19    7   10 1
  20    7   26 1
  21    7   12 1
  22    8    9 1
  23    8   35 1
  24    8   36 1
  25    9   10 1
  26    9   37 1
  27    9   38 1
  28   10   15 1
  29   10   20 1
  30   11   12 1
  31   11   13 1
  32   11   39 1
  33   11   40 1
  34   12   41 1
  35   12   42 1
  36   13   15 1
  37   13   21 1
  38   13   14 1
  39   14   17 1
  40   14   22 1
  41   14   43 1
  42   15   16 1
  43   15   27 1
  44   16   17 1
  45   16   44 1
  46   16   45 1
  47   17   46 1
  48   17   47 1
  49   18   48 1
  50   18   49 1
  51   18   50 1
  52   21   51 1
  53   21   52 1
  54   21   53 1
  55   22   23 2
  56   22   24 1
  57   24   54 1
  58   24   55 1
  59   24   56 1
  60   25   57 1

#	End of record

