#	Name: ASD01470031
#	Creating user name:	WinNT
#	Creation time:	15. 06. 2019 19:21

#	Modifying user name:	WinNT
#	Modification time:	15. 06. 2019 19:21

#	Program:	/corina/corina34_cracker 3.40 0067  02.08.2006

@<TRIPOS>MOLECULE
ASD01470031
  84   90    0    0    0
SMALL
NO_CHARGES


@<TRIPOS>ATOM
   1 N1            -0.8258     1.2792     0.9864 N.am    
   2 C2             0.5184     0.7328     0.8209 C.3     
   3 C3             0.8716    -0.2041     1.9846 C.3     
   4 C4             0.3724    -1.6206     1.7444 C.3     
   5 C5            -0.9012    -1.6296     0.9152 C.3     
   6 N6            -1.9189    -0.7657     1.5148 N.am    
   7 C7            -1.8756     0.5702     1.3694 C.2     
   8 O8            -2.8996     1.1829     1.6024 O.2     
   9 C9            -3.0039    -1.3671     2.2940 C.3     
  10 C10           -1.0236     2.7055     0.7167 C.3     
  11 C11           -0.8911     3.4827     2.0010 C.ar    
  12 C12           -2.6336    -1.3666     3.7547 C.ar    
  13 C13           -2.8276    -0.2405     4.5008 C.ar    
  14 C14           -2.4837    -0.2413     5.8573 C.ar    
  15 C15           -1.9413    -1.4040     6.4378 C.ar    
  16 C16           -1.7551    -2.5384     5.6513 C.ar    
  17 C17           -2.1031    -2.5147     4.3307 C.ar    
  18 C18            0.3599     3.8636     2.4501 C.ar    
  19 C19            0.4886     4.5762     3.6274 C.ar    
  20 C20           -0.6395     4.9115     4.3619 C.ar    
  21 C21           -1.9014     4.5274     3.9083 C.ar    
  22 C22           -2.0211     3.8173     2.7236 C.ar    
  23 C23           -2.5528     0.7546     6.9217 C.2     
  24 N24           -2.0910     0.2069     8.0094 N.2     
  25 N25           -1.7060    -1.1138     7.7563 N.pl3   
  26 C26            0.5869    -0.0478    -0.4932 C.3     
  27 O27            2.2915    -0.2329     2.1429 O.3     
  28 C28            1.6021     0.5918    -1.4051 C.ar    
  29 C29            2.9388     0.2574    -1.2938 C.ar    
  30 C30            3.8700     0.8441    -2.1301 C.ar    
  31 C31            3.4645     1.7649    -3.0781 C.ar    
  32 C32            2.1277     2.0986    -3.1900 C.ar    
  33 C33            1.1959     1.5087    -2.3565 C.ar    
  34 C34           -1.4389    -3.0596     0.8332 C.3     
  35 O35            0.1141    -2.2445     3.0038 O.3     
  36 C36           -0.4423    -3.9305     0.1124 C.ar    
  37 C37            0.4668    -4.6824     0.8328 C.ar    
  38 C38            1.3810    -5.4812     0.1716 C.ar    
  39 C39            1.3857    -5.5284    -1.2099 C.ar    
  40 C40            0.4759    -4.7772    -1.9303 C.ar    
  41 C41           -0.4411    -3.9818    -1.2690 C.ar    
  42 N42           -3.0465     4.8631     4.6461 N.pl3   
  43 C43           -4.1974     5.3646     4.1446 C.2     
  44 C44           -5.0510     5.5501     5.1786 C.2     
  45 C45           -4.4013     5.1490     6.3507 C.2     
  46 N46           -3.2019     4.7322     6.0322 N.2     
  47 N47           -0.5120     5.6317     5.5531 N.pl3   
  48 H48            1.2373     1.5514     0.7881 H       
  49 H49            0.4193     0.1805     2.8987 H       
  50 H50            1.1430    -2.1856     1.2200 H       
  51 H51           -0.6769    -1.2752    -0.0909 H       
  52 H52           -3.9174    -0.7900     2.1505 H       
  53 H53           -3.1657    -2.3922     1.9605 H       
  54 H54           -0.2723     3.0484     0.0053 H       
  55 H55           -2.0180     2.8616     0.2984 H       
  56 H56           -3.2439     0.6466     4.0467 H       
  57 H57           -1.3396    -3.4357     6.0855 H       
  58 H58           -1.9572    -3.3968     3.7248 H       
  59 H59            1.2391     3.6034     1.8794 H       
  60 H60            1.4673     4.8716     3.9757 H       
  61 H61           -2.9966     3.5184     2.3695 H       
  62 H62           -2.9210     1.7652     6.8247 H       
  63 H63           -1.3327    -1.7261     8.4093 H       
  64 H64            0.8797    -1.0777    -0.2892 H       
  65 H65           -0.3913    -0.0365    -0.9740 H       
  66 H66            2.5957    -0.8048     2.8609 H       
  67 H67            3.2556    -0.4620    -0.5531 H       
  68 H68            4.9144     0.5833    -2.0427 H       
  69 H69            4.1921     2.2238    -3.7310 H       
  70 H70            1.8109     2.8182    -3.9304 H       
  71 H71            0.1515     1.7694    -2.4439 H       
  72 H72           -1.5981    -3.4462     1.8398 H       
  73 H73           -2.3836    -3.0620     0.2895 H       
  74 H74            0.8890    -2.3048     3.5792 H       
  75 H75            0.4632    -4.6455     1.9121 H       
  76 H76            2.0918    -6.0681     0.7344 H       
  77 H77            2.1004    -6.1519    -1.7265 H       
  78 H78            0.4798    -4.8139    -3.0097 H       
  79 H79           -1.1519    -3.3949    -1.8318 H       
  80 H80           -4.3993     5.5791     3.1056 H       
  81 H81           -6.0561     5.9394     5.1107 H       
  82 H82           -4.8187     5.1751     7.3464 H       
  83 H83            0.3583     5.9560     5.8330 H       
  84 H84           -1.2938     5.8071     6.0998 H       
@<TRIPOS>BOND
   1    1    2 1
   2    1   10 1
   3    1    7 am
   4    2    3 1
   5    2   26 1
   6    2   48 1
   7    3    4 1
   8    3   27 1
   9    3   49 1
  10    4    5 1
  11    4   35 1
  12    4   50 1
  13    5    6 1
  14    5   34 1
  15    5   51 1
  16    6    7 am
  17    6    9 1
  18    7    8 2
  19    9   12 1
  20    9   52 1
  21    9   53 1
  22   10   11 1
  23   10   54 1
  24   10   55 1
  25   11   18 ar
  26   11   22 ar
  27   12   13 ar
  28   12   17 ar
  29   13   14 ar
  30   13   56 1
  31   14   15 ar
  32   14   23 1
  33   15   16 ar
  34   15   25 1
  35   16   17 ar
  36   16   57 1
  37   17   58 1
  38   18   19 ar
  39   18   59 1
  40   19   20 ar
  41   19   60 1
  42   20   21 ar
  43   20   47 1
  44   21   22 ar
  45   21   42 1
  46   22   61 1
  47   23   24 2
  48   23   62 1
  49   24   25 1
  50   25   63 1
  51   26   28 1
  52   26   64 1
  53   26   65 1
  54   27   66 1
  55   28   29 ar
  56   28   33 ar
  57   29   30 ar
  58   29   67 1
  59   30   31 ar
  60   30   68 1
  61   31   32 ar
  62   31   69 1
  63   32   33 ar
  64   32   70 1
  65   33   71 1
  66   34   36 1
  67   34   72 1
  68   34   73 1
  69   35   74 1
  70   36   37 ar
  71   36   41 ar
  72   37   38 ar
  73   37   75 1
  74   38   39 ar
  75   38   76 1
  76   39   40 ar
  77   39   77 1
  78   40   41 ar
  79   40   78 1
  80   41   79 1
  81   42   43 1
  82   42   46 1
  83   43   44 2
  84   43   80 1
  85   44   45 1
  86   44   81 1
  87   45   46 2
  88   45   82 1
  89   47   83 1
  90   47   84 1

#	End of record

