#	Name: ASD01870101
#	Creating user name:	WinNT
#	Creation time:	15. 06. 2019 19:38

#	Modifying user name:	WinNT
#	Modification time:	15. 06. 2019 19:38

#	Program:	/corina/corina34_cracker 3.40 0067  02.08.2006

@<TRIPOS>MOLECULE
ASD01870101
  31   32    0    0    0
SMALL
NO_CHARGES


@<TRIPOS>ATOM
   1 C1            -0.0181     1.4705     0.0146 C.2     
   2 C2             0.0015    -0.0045     0.0115 C.ar    
   3 C3             1.2224    -0.6931     0.0008 C.ar    
   4 C4             1.2296    -2.0796    -0.0021 C.ar    
   5 C5             0.0385    -2.7784     0.0056 C.ar    
   6 C6            -1.1711    -2.1019     0.0157 C.ar    
   7 C7            -1.1964    -0.7228     0.0250 C.ar    
   8 O8             1.0268     2.0924     0.0079 O.2     
   9 N9            -1.1941     2.1288     0.0193 N.am    
  10 C10           -1.2149     3.5225     0.1325 C.ar    
  11 C11           -2.1826     4.2598    -0.5359 C.ar    
  12 C12           -2.2001     5.6407    -0.4209 C.ar    
  13 C13           -1.2508     6.2832     0.3619 C.ar    
  14 C14           -0.2880     5.5478     1.0262 C.ar    
  15 C15           -0.2706     4.1705     0.9186 C.ar    
  16 O16           -3.1460     6.3654    -1.0744 O.3     
  17 C17           -3.1041     7.7844    -0.9105 C.3     
  18 O18            2.3921    -0.0058    -0.0071 O.3     
  19 Cl19          -2.6604    -2.9938     0.0246 Cl      
  20 H20            2.1682    -2.6139    -0.0106 H       
  21 H21            0.0496    -3.8584     0.0033 H       
  22 H22           -2.1409    -0.1992     0.0381 H       
  23 H23           -2.0262     1.6359    -0.0559 H       
  24 H24           -2.9202     3.7582    -1.1448 H       
  25 H25           -1.2646     7.3594     0.4515 H       
  26 H26            0.4497     6.0503     1.6343 H       
  27 H27            0.4803     3.5977     1.4425 H       
  28 H28           -3.2224     8.0319     0.1444 H       
  29 H29           -2.1464     8.1633    -1.2673 H       
  30 H30           -3.9115     8.2403    -1.4835 H       
  31 H31            2.7381     0.1920     0.8739 H       
@<TRIPOS>BOND
   1    1    2 1
   2    1    8 2
   3    1    9 am
   4    2    3 ar
   5    2    7 ar
   6    3    4 ar
   7    3   18 1
   8    4    5 ar
   9    4   20 1
  10    5    6 ar
  11    5   21 1
  12    6    7 ar
  13    6   19 1
  14    7   22 1
  15    9   10 1
  16    9   23 1
  17   10   11 ar
  18   10   15 ar
  19   11   12 ar
  20   11   24 1
  21   12   13 ar
  22   12   16 1
  23   13   14 ar
  24   13   25 1
  25   14   15 ar
  26   14   26 1
  27   15   27 1
  28   16   17 1
  29   17   28 1
  30   17   29 1
  31   17   30 1
  32   18   31 1

#	End of record

