#	Name: ASD02039336
#	Creating user name:	WinNT
#	Creation time:	15. 06. 2019 20:18

#	Modifying user name:	WinNT
#	Modification time:	15. 06. 2019 20:18

#	Program:	/corina/corina34_cracker 3.40 0067  02.08.2006

@<TRIPOS>MOLECULE
ASD02039336
  47   49    0    0    0
SMALL
NO_CHARGES


@<TRIPOS>ATOM
   1 C1            -0.1345     1.5596    -0.1872 C.ar    
   2 C2            -0.1559     0.1782    -0.0590 C.ar    
   3 C3            -1.3627    -0.4920    -0.1418 C.ar    
   4 C4            -2.5120     1.4849    -0.4577 C.ar    
   5 C5            -1.3325     2.2230    -0.3898 C.ar    
   6 C6            -3.8038     2.1808    -0.6744 C.ar    
   7 C7             1.1630     2.3212    -0.1015 C.3     
   8 N8             1.8163     2.3220    -1.4127 N.am    
   9 C9             1.4075     3.2892    -2.4342 C.3     
  10 C10            2.7935     1.4328    -1.6793 C.2     
  11 C11            3.1433     0.4028    -0.6857 C.2     
  12 C12            4.1487    -0.5129    -0.7933 C.2     
  13 N13            2.5275     0.1958     0.5063 N.2     
  14 C14            3.1089    -0.7981     1.1134 C.2     
  15 N15            4.1202    -1.2620     0.3340 N.pl3   
  16 O16            3.3866     1.4808    -2.7400 O.2     
  17 C17            5.0183    -2.3739     0.6553 C.3     
  18 C18           -4.9886     1.4502    -0.7436 C.ar    
  19 N19           -2.4880     0.1634    -0.3407 N.ar    
  20 C20            2.5762     4.2262    -2.7462 C.3     
  21 C21            0.9972     2.5448    -3.7063 C.3     
  22 C22           -3.8375     3.5681    -0.8036 C.ar    
  23 C23           -5.0418     4.2109    -1.0046 C.ar    
  24 C24           -6.2154     3.4801    -1.0779 C.ar    
  25 C25           -6.1878     2.1023    -0.9448 C.ar    
  26 Cl26          -7.7274     4.2947    -1.3309 Cl      
  27 H27            0.7612    -0.3685     0.1036 H       
  28 H28           -1.3828    -1.5672    -0.0425 H       
  29 H29           -1.3534     3.2986    -0.4848 H       
  30 H30            0.9622     3.3478     0.2050 H       
  31 H31            1.8163     1.8450     0.6297 H       
  32 H32            0.5631     3.8718    -2.0658 H       
  33 H33            4.8357    -0.6201    -1.6197 H       
  34 H34            2.8336    -1.1889     2.0819 H       
  35 H35            4.5914    -3.3051     0.2828 H       
  36 H36            5.9876    -2.2053     0.1862 H       
  37 H37            5.1441    -2.4387     1.7361 H       
  38 H38           -4.9681     0.3753    -0.6402 H       
  39 H39            3.4480     3.6373    -3.0312 H       
  40 H40            2.3014     4.8890    -3.5667 H       
  41 H41            2.8117     4.8198    -1.8629 H       
  42 H42            0.1123     1.9410    -3.5046 H       
  43 H43            0.7737     3.2654    -4.4930 H       
  44 H44            1.8131     1.8975    -4.0277 H       
  45 H45           -2.9226     4.1391    -0.7463 H       
  46 H46           -5.0690     5.2860    -1.1046 H       
  47 H47           -7.1060     1.5366    -1.0030 H       
@<TRIPOS>BOND
   1    1    2 ar
   2    1    7 1
   3    1    5 ar
   4    2    3 ar
   5    2   27 1
   6    3   19 ar
   7    3   28 1
   8    4    5 ar
   9    4    6 1
  10    4   19 ar
  11    5   29 1
  12    6   18 ar
  13    6   22 ar
  14    7    8 1
  15    7   30 1
  16    7   31 1
  17    8    9 1
  18    8   10 am
  19    9   21 1
  20    9   20 1
  21    9   32 1
  22   10   11 1
  23   10   16 2
  24   11   12 2
  25   11   13 1
  26   12   15 1
  27   12   33 1
  28   13   14 2
  29   14   15 1
  30   14   34 1
  31   15   17 1
  32   17   35 1
  33   17   36 1
  34   17   37 1
  35   18   25 ar
  36   18   38 1
  37   20   39 1
  38   20   40 1
  39   20   41 1
  40   21   42 1
  41   21   43 1
  42   21   44 1
  43   22   23 ar
  44   22   45 1
  45   23   24 ar
  46   23   46 1
  47   24   25 ar
  48   24   26 1
  49   25   47 1

#	End of record

