#	Name: ASD01912501
#	Creating user name:	WinNT
#	Creation time:	15. 06. 2019 19:59

#	Modifying user name:	WinNT
#	Modification time:	15. 06. 2019 19:59

#	Program:	/corina/corina34_cracker 3.40 0067  02.08.2006

@<TRIPOS>MOLECULE
ASD01912501
  41   44    0    0    0
SMALL
NO_CHARGES


@<TRIPOS>ATOM
   1 C1            -0.0161     1.3325     0.0094 C.2     
   2 O2             0.0021    -0.0041     0.0020 O.3     
   3 N3             1.1471    -0.4039    -0.0111 N.2     
   4 C4             1.9761     0.6073    -0.0135 C.2     
   5 N5             1.2303     1.7351    -0.0004 N.2     
   6 C6             3.4584     0.5314    -0.0281 C.ar    
   7 C7             4.0944    -0.7076    -0.0414 C.ar    
   8 C8             5.4755    -0.7722    -0.0548 C.ar    
   9 C9             6.2248     0.3929    -0.0552 C.ar    
  10 C10            5.5961     1.6247    -0.0420 C.ar    
  11 C11            4.2181     1.6996    -0.0343 C.ar    
  12 F12            6.0948    -1.9728    -0.0673 F       
  13 C13           -1.2404     2.2110     0.0202 C.3     
  14 C14           -2.2038     1.9184     1.1847 C.3     
  15 C15           -2.8954     0.9266     0.2318 C.3     
  16 N16           -2.3226     1.7341    -0.8627 N.am    
  17 C17           -2.6544     1.9494    -2.1511 C.2     
  18 C18           -3.8658     1.2737    -2.7403 C.3     
  19 O19           -1.9782     2.6870    -2.8364 O.2     
  20 C20           -4.0141     1.6784    -4.1843 C.ar    
  21 C21           -3.4034     0.9350    -5.1761 C.ar    
  22 C22           -3.5399     1.3071    -6.5030 C.ar    
  23 C23           -4.2883     2.4238    -6.8342 C.ar    
  24 C24           -4.8982     3.1659    -5.8403 C.ar    
  25 C25           -4.7659     2.7902    -4.5167 C.ar    
  26 F26           -2.9429     0.5813    -7.4735 F       
  27 H27            3.5101    -1.6159    -0.0407 H       
  28 H28            7.3034     0.3391    -0.0654 H       
  29 H29            6.1849     2.5301    -0.0424 H       
  30 H30            3.7291     2.6625    -0.0244 H       
  31 H31           -1.0061     3.2686    -0.1010 H       
  32 H32           -1.7255     1.4431     2.0411 H       
  33 H33           -2.8277     2.7680     1.4622 H       
  34 H34           -2.4960    -0.0861     0.2861 H       
  35 H35           -3.9839     0.9590     0.2783 H       
  36 H36           -3.7455     0.1922    -2.6766 H       
  37 H37           -4.7549     1.5737    -2.1857 H       
  38 H38           -2.8196     0.0643    -4.9166 H       
  39 H39           -4.3951     2.7151    -7.8686 H       
  40 H40           -5.4820     4.0370    -6.0984 H       
  41 H41           -5.2432     3.3704    -3.7408 H       
@<TRIPOS>BOND
   1    1    2 1
   2    1    5 2
   3    1   13 1
   4    2    3 1
   5    3    4 2
   6    4    5 1
   7    4    6 1
   8    6    7 ar
   9    6   11 ar
  10    7    8 ar
  11    7   27 1
  12    8    9 ar
  13    8   12 1
  14    9   10 ar
  15    9   28 1
  16   10   11 ar
  17   10   29 1
  18   11   30 1
  19   13   14 1
  20   13   16 1
  21   13   31 1
  22   14   15 1
  23   14   32 1
  24   14   33 1
  25   15   16 1
  26   15   34 1
  27   15   35 1
  28   16   17 am
  29   17   18 1
  30   17   19 2
  31   18   20 1
  32   18   36 1
  33   18   37 1
  34   20   21 ar
  35   20   25 ar
  36   21   22 ar
  37   21   38 1
  38   22   23 ar
  39   22   26 1
  40   23   24 ar
  41   23   39 1
  42   24   25 ar
  43   24   40 1
  44   25   41 1

#	End of record

