#	Name: ASD03082323
#	Creating user name:	WinNT
#	Creation time:	15. 06. 2019 20:27

#	Modifying user name:	WinNT
#	Modification time:	15. 06. 2019 20:27

#	Program:	/corina/corina34_cracker 3.40 0067  02.08.2006

@<TRIPOS>MOLECULE
ASD03082323
  51   54    0    0    0
SMALL
NO_CHARGES


@<TRIPOS>ATOM
   1 C1             0.0554     1.3603     0.0197 C.ar    
   2 C2             0.0610     0.0679    -0.4873 C.ar    
   3 C3            -1.1110    -0.6696    -0.5149 C.ar    
   4 C4            -2.2933    -0.1126    -0.0336 C.ar    
   5 C5            -2.2947     1.1773     0.4719 C.ar    
   6 C6            -1.1241     1.9109     0.5037 C.ar    
   7 O7            -1.3718    -1.9360    -0.9530 O.3     
   8 C8            -2.6337    -2.2958    -0.3605 C.3     
   9 O9            -3.2953    -1.0312    -0.1703 O.3     
  10 F10           -3.3697    -3.1101    -1.2280 F       
  11 F11           -2.4355    -2.9364     0.8673 F       
  12 N12            1.2395     2.1061     0.0484 N.pl3   
  13 C13            1.1922     3.4960    -0.0741 C.2     
  14 N14            0.0960     4.2146    -0.3201 N.2     
  15 N15            2.2192     4.3070     0.0400 N.2     
  16 N16            1.7341     5.6108    -0.1515 N.pl3   
  17 C17            0.4056     5.4946    -0.3718 C.2     
  18 C18           -0.5352     6.6082    -0.6270 C.ar    
  19 C19           -1.9096     6.4501    -0.4191 C.ar    
  20 C20           -2.7510     7.5147    -0.6697 C.ar    
  21 N21           -2.2752     8.6675    -1.0995 N.ar    
  22 C22           -0.9868     8.8588    -1.3084 C.ar    
  23 C23           -0.0741     7.8500    -1.0773 C.ar    
  24 C24            2.5127     6.8513    -0.1153 C.3     
  25 C25           -0.5045    10.1991    -1.8004 C.3     
  26 C26           -4.2336     7.3581    -0.4500 C.3     
  27 C27            3.0772     7.1302    -1.4845 C.2     
  28 N28            3.8329     8.2268    -1.6913 N.am    
  29 O29            2.8513     6.3679    -2.4004 O.2     
  30 C30            4.3816     8.4979    -3.0223 C.3     
  31 C31            4.1058     9.1476    -0.5850 C.3     
  32 H32            0.9788    -0.3621    -0.8604 H       
  33 H33           -3.2117     1.6091     0.8448 H       
  34 H34           -1.1280     2.9162     0.8984 H       
  35 H35            2.0930     1.6572     0.1533 H       
  36 H36           -2.3062     5.5089    -0.0681 H       
  37 H37            0.9793     8.0135    -1.2505 H       
  38 H38            1.8677     7.6764     0.1868 H       
  39 H39            3.3287     6.7473     0.5998 H       
  40 H40           -0.2778    10.8390    -0.9477 H       
  41 H41            0.3943    10.0633    -2.4020 H       
  42 H42           -1.2812    10.6642    -2.4074 H       
  43 H43           -4.4805     7.6364     0.5745 H       
  44 H44           -4.7737     8.0040    -1.1422 H       
  45 H45           -4.5190     6.3205    -0.6235 H       
  46 H46            4.0745     7.7095    -3.7094 H       
  47 H47            4.0088     9.4575    -3.3804 H       
  48 H48            5.4698     8.5285    -2.9674 H       
  49 H49            5.0169     8.8396    -0.0722 H       
  50 H50            4.2323    10.1573    -0.9755 H       
  51 H51            3.2711     9.1310     0.1158 H       
@<TRIPOS>BOND
   1    1    2 ar
   2    1   12 1
   3    1    6 ar
   4    2    3 ar
   5    2   32 1
   6    3    4 ar
   7    3    7 1
   8    4    5 ar
   9    4    9 1
  10    5    6 ar
  11    5   33 1
  12    6   34 1
  13    7    8 1
  14    8    9 1
  15    8   10 1
  16    8   11 1
  17   12   13 1
  18   12   35 1
  19   13   14 1
  20   13   15 2
  21   14   17 2
  22   15   16 1
  23   16   17 1
  24   16   24 1
  25   17   18 1
  26   18   19 ar
  27   18   23 ar
  28   19   20 ar
  29   19   36 1
  30   20   21 ar
  31   20   26 1
  32   21   22 ar
  33   22   23 ar
  34   22   25 1
  35   23   37 1
  36   24   27 1
  37   24   38 1
  38   24   39 1
  39   25   40 1
  40   25   41 1
  41   25   42 1
  42   26   43 1
  43   26   44 1
  44   26   45 1
  45   27   28 am
  46   27   29 2
  47   28   30 1
  48   28   31 1
  49   30   46 1
  50   30   47 1
  51   30   48 1
  52   31   49 1
  53   31   50 1
  54   31   51 1

#	End of record

