#	Name: ASD00100140
#	Creating user name:	WinNT
#	Creation time:	15. 06. 2019 18:30

#	Modifying user name:	WinNT
#	Modification time:	15. 06. 2019 18:30

#	Program:	/corina/corina34_cracker 3.40 0067  02.08.2006

@<TRIPOS>MOLECULE
ASD00100140
  47   49    0    0    0
SMALL
NO_CHARGES


@<TRIPOS>ATOM
   1 N1            -0.1263     1.5372     0.3558 N.pl3   
   2 C2            -0.0185     0.1686     0.1771 C.2     
   3 N3             1.1016    -0.4966     0.0328 N.2     
   4 C4             0.8192    -1.8150    -0.1178 C.2     
   5 C5            -0.5278    -1.9616    -0.0634 C.2     
   6 N6            -1.0577    -0.7087     0.1280 N.pl3   
   7 C7            -2.4793    -0.3777     0.2534 C.3     
   8 C8            -3.0244     0.0155    -1.0954 C.ar    
   9 C9            -3.4572    -0.9610    -1.9810 C.ar    
  10 C10           -3.9583    -0.5958    -3.2218 C.ar    
  11 C11           -4.0254     0.7388    -3.5728 C.ar    
  12 C12           -3.5931     1.7098    -2.6889 C.ar    
  13 C13           -3.0988     1.3487    -1.4489 C.ar    
  14 O14           -3.3898    -2.2731    -1.6335 O.3     
  15 C15           -3.8529    -3.2235    -2.5949 C.3     
  16 C16            1.8087    -2.9035    -0.3083 C.ar    
  17 C17            3.1711    -2.6119    -0.3447 C.ar    
  18 C18            4.0872    -3.6286    -0.5223 C.ar    
  19 C19            3.6555    -4.9351    -0.6643 C.ar    
  20 C20            2.3046    -5.2305    -0.6289 C.ar    
  21 C21            1.3798    -4.2226    -0.4457 C.ar    
  22 C22            4.6608    -6.0409    -0.8589 C.3     
  23 C23            4.5321    -7.0534     0.2809 C.3     
  24 C24            4.3979    -6.7400    -2.1942 C.3     
  25 H25            0.6734     2.0806     0.4340 H       
  26 H26           -1.0014     1.9532     0.3988 H       
  27 H27           -1.0784    -2.8866    -0.1503 H       
  28 H28           -3.0230    -1.2459     0.6260 H       
  29 H29           -2.5991     0.4523     0.9498 H       
  30 H30           -4.2955    -1.3541    -3.9130 H       
  31 H31           -4.4155     1.0237    -4.5388 H       
  32 H32           -3.6457     2.7525    -2.9654 H       
  33 H33           -2.7662     2.1094    -0.7582 H       
  34 H34           -4.9029    -3.0330    -2.8174 H       
  35 H35           -3.2655    -3.1319    -3.5085 H       
  36 H36           -3.7438    -4.2304    -2.1922 H       
  37 H37            3.5092    -1.5921    -0.2346 H       
  38 H38            5.1432    -3.4038    -0.5507 H       
  39 H39            1.9732    -6.2523    -0.7404 H       
  40 H40            0.3256    -4.4549    -0.4135 H       
  41 H41            5.6668    -5.6213    -0.8603 H       
  42 H42            3.5262    -7.4731     0.2823 H       
  43 H43            5.2592    -7.8532     0.1402 H       
  44 H44            4.7194    -6.5554     1.2322 H       
  45 H45            4.4896    -6.0186    -3.0062 H       
  46 H46            5.1250    -7.5397    -2.3349 H       
  47 H47            3.3920    -7.1596    -2.1928 H       
@<TRIPOS>BOND
   1    1    2 1
   2    1   25 1
   3    1   26 1
   4    2    3 2
   5    2    6 1
   6    3    4 1
   7    4    5 2
   8    4   16 1
   9    5    6 1
  10    5   27 1
  11    6    7 1
  12    7    8 1
  13    7   28 1
  14    7   29 1
  15    8    9 ar
  16    8   13 ar
  17    9   10 ar
  18    9   14 1
  19   10   11 ar
  20   10   30 1
  21   11   12 ar
  22   11   31 1
  23   12   13 ar
  24   12   32 1
  25   13   33 1
  26   14   15 1
  27   15   34 1
  28   15   35 1
  29   15   36 1
  30   16   17 ar
  31   16   21 ar
  32   17   18 ar
  33   17   37 1
  34   18   19 ar
  35   18   38 1
  36   19   20 ar
  37   19   22 1
  38   20   21 ar
  39   20   39 1
  40   21   40 1
  41   22   23 1
  42   22   24 1
  43   22   41 1
  44   23   42 1
  45   23   43 1
  46   23   44 1
  47   24   45 1
  48   24   46 1
  49   24   47 1

#	End of record

