#	Name: ASD01882596
#	Creating user name:	WinNT
#	Creation time:	15. 06. 2019 19:44

#	Modifying user name:	WinNT
#	Modification time:	15. 06. 2019 19:44

#	Program:	/corina/corina34_cracker 3.40 0067  02.08.2006

@<TRIPOS>MOLECULE
ASD01882596
  52   56    0    0    0
SMALL
NO_CHARGES


@<TRIPOS>ATOM
   1 C1            -0.0170     1.4047     0.0098 C.2     
   2 C2             0.0021    -0.0041     0.0020 C.2     
   3 C3             1.1988    -0.6521    -0.0129 C.2     
   4 C4             2.3929     0.0891    -0.0203 C.2     
   5 C5             2.3587     1.4382    -0.0128 C.2     
   6 N6             1.1665     2.1010     0.0022 N.pl3   
   7 N7            -0.4824     3.4844     0.0230 N.2     
   8 N8            -0.9895     2.3017     0.0186 N.2     
   9 C9             0.8240     3.4177     0.0126 C.2     
  10 C10            1.2434    -2.1584    -0.0209 C.3     
  11 N11            1.3651    -2.6373    -1.4043 N.3     
  12 C12            1.6488    -4.0777    -1.4395 C.3     
  13 C13            1.9125    -4.5119    -2.8831 C.3     
  14 C14            0.6835    -4.1937    -3.7392 C.3     
  15 C15            0.3808    -2.6955    -3.6467 C.3     
  16 C16            0.1615    -2.3140    -2.1809 C.3     
  17 C17            0.9595    -4.5640    -5.1737 C.ar    
  18 C18            0.1687    -5.5027    -5.8096 C.ar    
  19 C19            0.4219    -5.8424    -7.1254 C.ar    
  20 C20            1.4655    -5.2431    -7.8055 C.ar    
  21 C21            2.2557    -4.3037    -7.1699 C.ar    
  22 C22            1.9999    -3.9608    -5.8554 C.ar    
  23 C23            1.7759     4.5861     0.0105 C.3     
  24 C24            2.0851     4.9895    -1.4326 C.3     
  25 C25            2.9453     6.2361    -1.6487 C.3     
  26 C26            3.5313     4.8474    -1.9113 C.3     
  27 Br27          -1.6158    -0.9829     0.0128 Br      
  28 H28            3.3432    -0.4239    -0.0318 H       
  29 H29            3.2826     1.9975    -0.0186 H       
  30 H30            2.1013    -2.4996     0.5585 H       
  31 H31            0.3275    -2.5513     0.4204 H       
  32 H32            2.5274    -4.2898    -0.8302 H       
  33 H33            0.7930    -4.6261    -1.0459 H       
  34 H34            2.7767    -3.9739    -3.2728 H       
  35 H35            2.1076    -5.5839    -2.9108 H       
  36 H36           -0.1720    -4.7615    -3.3736 H       
  37 H37            1.2209    -2.1290    -4.0484 H       
  38 H38           -0.5184    -2.4699    -4.2199 H       
  39 H39           -0.6873    -2.8707    -1.7838 H       
  40 H40           -0.0402    -1.2452    -2.1101 H       
  41 H41           -0.6467    -5.9710    -5.2783 H       
  42 H42           -0.1955    -6.5764    -7.6220 H       
  43 H43            1.6637    -5.5091    -8.8333 H       
  44 H44            3.0713    -3.8357    -7.7011 H       
  45 H45            2.6149    -3.2242    -5.3600 H       
  46 H46            1.3200     5.4270     0.5331 H       
  47 H47            2.6999     4.3028     0.5146 H       
  48 H48            1.2936     4.7926    -2.1556 H       
  49 H49            2.7200     6.8592    -2.5142 H       
  50 H50            3.2909     6.7689    -0.7628 H       
  51 H51            4.2624     4.4666    -1.1982 H       
  52 H52            3.6915     4.5569    -2.9496 H       
@<TRIPOS>BOND
   1    1    2 1
   2    1    6 1
   3    1    8 2
   4    2    3 2
   5    2   27 1
   6    3    4 1
   7    3   10 1
   8    4    5 2
   9    4   28 1
  10    5    6 1
  11    5   29 1
  12    6    9 1
  13    7    8 1
  14    7    9 2
  15    9   23 1
  16   10   11 1
  17   10   30 1
  18   10   31 1
  19   11   12 1
  20   11   16 1
  21   12   13 1
  22   12   32 1
  23   12   33 1
  24   13   14 1
  25   13   34 1
  26   13   35 1
  27   14   15 1
  28   14   17 1
  29   14   36 1
  30   15   16 1
  31   15   37 1
  32   15   38 1
  33   16   39 1
  34   16   40 1
  35   17   18 ar
  36   17   22 ar
  37   18   19 ar
  38   18   41 1
  39   19   20 ar
  40   19   42 1
  41   20   21 ar
  42   20   43 1
  43   21   22 ar
  44   21   44 1
  45   22   45 1
  46   23   24 1
  47   23   46 1
  48   23   47 1
  49   24   25 1
  50   24   26 1
  51   24   48 1
  52   25   26 1
  53   25   49 1
  54   25   50 1
  55   26   51 1
  56   26   52 1

#	End of record

