#	Name: ASD01814608
#	Creating user name:	WinNT
#	Creation time:	15. 06. 2019 19:32

#	Modifying user name:	WinNT
#	Modification time:	15. 06. 2019 19:32

#	Program:	/corina/corina34_cracker 3.40 0067  02.08.2006

@<TRIPOS>MOLECULE
ASD01814608
  53   56    0    0    0
SMALL
NO_CHARGES


@<TRIPOS>ATOM
   1 N1            -0.6002     1.7506    -1.0228 N.2     
   2 C2            -0.6635     0.4584    -1.2417 C.2     
   3 C3             0.5090    -0.2794    -1.4656 C.2     
   4 C4             1.7077     0.3546    -1.4539 C.2     
   5 N5             1.7451     1.7004    -1.2235 N.pl3   
   6 C6             0.5783     2.3874    -1.0089 C.2     
   7 N7             2.7974     2.6188    -1.1497 N.2     
   8 C8             2.3031     3.8149    -0.9013 C.2     
   9 C9             0.9249     3.7180    -0.8065 C.2     
  10 C10            2.7029     5.2537    -0.6843 C.3     
  11 N11            1.4792     6.0267    -0.4503 N.am    
  12 C12            0.3575     5.0850    -0.5226 C.3     
  13 C13            1.4004     7.3512    -0.2137 C.2     
  14 C14            2.6326     8.1470    -0.0561 C.ar    
  15 C15            3.6647     8.0366    -0.9911 C.ar    
  16 C16            2.7722     9.0224     1.0293 C.ar    
  17 C17            3.9349     9.7661     1.1673 C.ar    
  18 C18            4.9490     9.6437     0.2386 C.ar    
  19 C19            4.8129     8.7829    -0.8385 C.ar    
  20 O20            0.3137     7.8902    -0.1301 O.2     
  21 C21           -2.0008    -0.2364    -1.2522 C.3     
  22 Cl22           0.4258    -1.9891    -1.7547 Cl      
  23 C23            2.9813    -0.4153    -1.6911 C.3     
  24 O24            1.7745     9.1423     1.9406 O.3     
  25 C25            1.9879    10.0540     3.0201 C.3     
  26 C26            0.7637    10.0535     3.9377 C.3     
  27 N27            0.6339     8.7389     4.5802 N.3     
  28 C28            1.6190     8.5803     5.6583 C.3     
  29 C29           -0.7316     8.5297     5.0799 C.3     
  30 H30            3.3583     5.3280     0.1835 H       
  31 H31            3.2154     5.6321    -1.5687 H       
  32 H32           -0.3201     5.3777    -1.3247 H       
  33 H33           -0.1765     5.0734     0.4276 H       
  34 H34            3.5630     7.3668    -1.8323 H       
  35 H35            4.0469    10.4420     2.0022 H       
  36 H36            5.8521    10.2254     0.3501 H       
  37 H37            5.6103     8.6965    -1.5617 H       
  38 H38           -2.7897     0.4911    -1.0611 H       
  39 H39           -2.1619    -0.6998    -2.2255 H       
  40 H40           -2.0180    -1.0030    -0.4775 H       
  41 H41            2.7452    -1.4669    -1.8539 H       
  42 H42            3.4885    -0.0166    -2.5697 H       
  43 H43            3.6314    -0.3192    -0.8215 H       
  44 H44            2.8669     9.7468     3.5868 H       
  45 H45            2.1440    11.0571     2.6230 H       
  46 H46            0.8823    10.8214     4.7021 H       
  47 H47           -0.1308    10.2607     3.3503 H       
  48 H48            1.4625     9.3537     6.4102 H       
  49 H49            1.5009     7.5985     6.1169 H       
  50 H50            2.6247     8.6708     5.2477 H       
  51 H51           -1.4250     8.4970     4.2395 H       
  52 H52           -0.7782     7.5877     5.6263 H       
  53 H53           -1.0048     9.3492     5.7446 H       
@<TRIPOS>BOND
   1    1    2 2
   2    1    6 1
   3    2    3 1
   4    2   21 1
   5    3    4 2
   6    3   22 1
   7    4    5 1
   8    4   23 1
   9    5    7 1
  10    5    6 1
  11    6    9 2
  12    7    8 2
  13    8   10 1
  14    8    9 1
  15    9   12 1
  16   10   11 1
  17   10   30 1
  18   10   31 1
  19   11   12 1
  20   11   13 am
  21   12   32 1
  22   12   33 1
  23   13   14 1
  24   13   20 2
  25   14   16 ar
  26   14   15 ar
  27   15   19 ar
  28   15   34 1
  29   16   17 ar
  30   16   24 1
  31   17   18 ar
  32   17   35 1
  33   18   19 ar
  34   18   36 1
  35   19   37 1
  36   21   38 1
  37   21   39 1
  38   21   40 1
  39   23   41 1
  40   23   42 1
  41   23   43 1
  42   24   25 1
  43   25   26 1
  44   25   44 1
  45   25   45 1
  46   26   27 1
  47   26   46 1
  48   26   47 1
  49   27   28 1
  50   27   29 1
  51   28   48 1
  52   28   49 1
  53   28   50 1
  54   29   51 1
  55   29   52 1
  56   29   53 1

#	End of record

