#	Name: ASD01811050
#	Creating user name:	WinNT
#	Creation time:	15. 06. 2019 19:25

#	Modifying user name:	WinNT
#	Modification time:	15. 06. 2019 19:25

#	Program:	/corina/corina34_cracker 3.40 0067  02.08.2006

@<TRIPOS>MOLECULE
ASD01811050
  59   63    0    0    0
SMALL
NO_CHARGES


@<TRIPOS>ATOM
   1 C1            -0.0169     1.3972     0.0097 C.2     
   2 C2             0.0021    -0.0041     0.0020 C.2     
   3 C3             1.1986    -0.6593    -0.0130 C.2     
   4 C4             2.3918     0.0821    -0.0204 C.2     
   5 N5             2.3437     1.4497    -0.0116 N.am    
   6 C6             1.1421     2.0936     0.0024 C.2     
   7 C7             3.4812     2.1736    -0.0181 C.2     
   8 C8             3.6227    -0.5889    -0.0357 C.2     
   9 C9             4.7345     1.5280    -0.0345 C.2     
  10 C10            5.9702     2.3140    -0.0408 C.2     
  11 C11            4.7877     0.1218    -0.0426 C.2     
  12 O12            3.4258     3.3917    -0.0101 O.2     
  13 O13            5.9124     3.6617    -0.0309 O.3     
  14 O14            7.0487     1.7516    -0.0549 O.2     
  15 C15            3.6594    -2.0954    -0.0441 C.3     
  16 N16            3.7788    -2.5746    -1.4276 N.3     
  17 C17            4.0548    -4.0165    -1.4631 C.3     
  18 C18            4.8038    -1.8195    -2.1595 C.3     
  19 C19            4.7995    -2.2442    -3.6297 C.3     
  20 C20            5.0817    -3.7463    -3.7229 C.3     
  21 C21            4.0282    -4.5067    -2.9126 C.3     
  22 C22            5.0196    -4.1819    -5.1642 C.ar    
  23 N23            4.4698    -3.3864    -6.0614 N.ar    
  24 C24            4.3898    -3.7192    -7.3356 C.ar    
  25 C25            4.8835    -4.9267    -7.7844 C.ar    
  26 C26            5.4746    -5.8007    -6.8674 C.ar    
  27 C27            5.5437    -5.4054    -5.5288 C.ar    
  28 C28            6.0187    -7.1100    -7.3044 C.ar    
  29 C29            5.9458    -7.4855    -8.6444 C.ar    
  30 C30            6.4540    -8.7044    -9.0454 C.ar    
  31 C31            7.0345    -9.5529    -8.1199 C.ar    
  32 C32            7.1096    -9.1852    -6.7885 C.ar    
  33 C33            6.6098    -7.9662    -6.3774 C.ar    
  34 C34            6.4198    -4.0301    -3.1791 C.1     
  35 N35            7.4525    -4.2491    -2.7595 N.1     
  36 H36           -0.9605     1.9226     0.0170 H       
  37 H37           -0.9233    -0.5609     0.0082 H       
  38 H38            1.2282    -1.7389    -0.0187 H       
  39 H39            1.1156     3.1733     0.0093 H       
  40 H40            5.7393    -0.3889    -0.0551 H       
  41 H41            6.7544     4.1373    -0.0356 H       
  42 H42            4.5153    -2.4413     0.5353 H       
  43 H43            2.7413    -2.4836     0.3969 H       
  44 H44            5.0376    -4.2088    -1.0327 H       
  45 H45            3.2961    -4.5458    -0.8867 H       
  46 H46            4.5890    -0.7532    -2.0888 H       
  47 H47            5.7830    -2.0221    -1.7257 H       
  48 H48            3.8249    -2.0291    -4.0678 H       
  49 H49            5.5710    -1.6949    -4.1694 H       
  50 H50            4.2486    -5.5738    -2.9399 H       
  51 H51            3.0415    -4.3272    -3.3394 H       
  52 H52            3.9313    -3.0374    -8.0366 H       
  53 H53            4.8140    -5.1930    -8.8288 H       
  54 H54            5.9926    -6.0516    -4.7891 H       
  55 H55            5.4921    -6.8241    -9.3677 H       
  56 H56            6.3980    -8.9965   -10.0836 H       
  57 H57            7.4303   -10.5061    -8.4379 H       
  58 H58            7.5636    -9.8516    -6.0701 H       
  59 H59            6.6693    -7.6799    -5.3377 H       
@<TRIPOS>BOND
   1    1    2 1
   2    1    6 2
   3    1   36 1
   4    2    3 2
   5    2   37 1
   6    3    4 1
   7    3   38 1
   8    4    5 1
   9    4    8 2
  10    5    6 1
  11    5    7 am
  12    6   39 1
  13    7    9 1
  14    7   12 2
  15    8   15 1
  16    8   11 1
  17    9   10 1
  18    9   11 2
  19   10   13 1
  20   10   14 2
  21   11   40 1
  22   13   41 1
  23   15   16 1
  24   15   42 1
  25   15   43 1
  26   16   17 1
  27   16   18 1
  28   17   21 1
  29   17   44 1
  30   17   45 1
  31   18   19 1
  32   18   46 1
  33   18   47 1
  34   19   20 1
  35   19   48 1
  36   19   49 1
  37   20   21 1
  38   20   22 1
  39   20   34 1
  40   21   50 1
  41   21   51 1
  42   22   23 ar
  43   22   27 ar
  44   23   24 ar
  45   24   25 ar
  46   24   52 1
  47   25   26 ar
  48   25   53 1
  49   26   27 ar
  50   26   28 1
  51   27   54 1
  52   28   29 ar
  53   28   33 ar
  54   29   30 ar
  55   29   55 1
  56   30   31 ar
  57   30   56 1
  58   31   32 ar
  59   31   57 1
  60   32   33 ar
  61   32   58 1
  62   33   59 1
  63   34   35 3

#	End of record

