#	Name: ASD01885392
#	Creating user name:	WinNT
#	Creation time:	15. 06. 2019 19:49

#	Modifying user name:	WinNT
#	Modification time:	15. 06. 2019 19:49

#	Program:	/corina/corina34_cracker 3.40 0067  02.08.2006

@<TRIPOS>MOLECULE
ASD01885392
  34   36    0    0    0
SMALL
NO_CHARGES


@<TRIPOS>ATOM
   1 C1            -0.0168     1.3901     0.0097 C.ar    
   2 C2             0.0021    -0.0041     0.0020 C.ar    
   3 N3            -1.1145    -0.7761     0.0186 N.2     
   4 C4            -2.1893    -0.5676    -0.6487 C.2     
   5 C5            -2.3481     0.6310    -1.5461 C.3     
   6 C6            -2.2769     1.8707    -0.6905 C.2     
   7 N7            -1.1813     2.1454     0.0184 N.am    
   8 C8             1.1914     2.0896     0.0019 C.ar    
   9 C9             2.3946     1.4183    -0.0174 C.ar    
  10 C10            2.4173     0.0336    -0.0297 C.ar    
  11 C11            1.2381    -0.6738    -0.0203 C.ar    
  12 C12           -3.3011    -1.5283    -0.5337 C.ar    
  13 C13           -3.2010    -2.6605     0.2902 C.ar    
  14 C14           -4.2871    -3.5160     0.3456 C.ar    
  15 N15           -5.3700    -3.2544    -0.3620 N.ar    
  16 N16           -5.4695    -2.2224    -1.1171 N.ar    
  17 C17           -4.4975    -1.3408    -1.2384 C.ar    
  18 O18           -3.2253     2.6255    -0.6468 O.2     
  19 C19            3.6878     2.1921    -0.0255 C.3     
  20 C20            3.7346    -0.6980    -0.0535 C.3     
  21 H21           -1.5462     0.6469    -2.2842 H       
  22 H22           -3.3131     0.5874    -2.0511 H       
  23 H23           -1.1996     2.9333     0.5838 H       
  24 H24            1.1829     3.1695     0.0108 H       
  25 H25            1.2616    -1.7535    -0.0302 H       
  26 H26           -2.3059    -2.8575     0.8615 H       
  27 H27           -4.2486    -4.3980     0.9677 H       
  28 H28           -4.6187    -0.4839    -1.8844 H       
  29 H29            4.0112     2.3700     1.0001 H       
  30 H30            4.4506     1.6193    -0.5529 H       
  31 H31            3.5368     3.1466    -0.5297 H       
  32 H32            4.0657    -0.8834     0.9683 H       
  33 H33            3.6132    -1.6479    -0.5741 H       
  34 H34            4.4775    -0.0919    -0.5719 H       
@<TRIPOS>BOND
   1    1    2 ar
   2    1    8 ar
   3    1    7 1
   4    2    3 1
   5    2   11 ar
   6    3    4 2
   7    4    5 1
   8    4   12 1
   9    5    6 1
  10    5   21 1
  11    5   22 1
  12    6    7 am
  13    6   18 2
  14    7   23 1
  15    8    9 ar
  16    8   24 1
  17    9   10 ar
  18    9   19 1
  19   10   11 ar
  20   10   20 1
  21   11   25 1
  22   12   13 ar
  23   12   17 ar
  24   13   14 ar
  25   13   26 1
  26   14   15 ar
  27   14   27 1
  28   15   16 ar
  29   16   17 ar
  30   17   28 1
  31   19   29 1
  32   19   30 1
  33   19   31 1
  34   20   32 1
  35   20   33 1
  36   20   34 1

#	End of record

