#	Name: ASD04590443
#	Creating user name:	WinNT
#	Creation time:	15. 06. 2019 20:50

#	Modifying user name:	WinNT
#	Modification time:	15. 06. 2019 20:50

#	Program:	/corina/corina34_cracker 3.40 0067  02.08.2006

@<TRIPOS>MOLECULE
ASD04590443
  51   55    0    0    0
SMALL
NO_CHARGES


@<TRIPOS>ATOM
   1 C1            -0.0167     1.3832     0.0096 C.ar    
   2 C2             0.0021    -0.0041     0.0020 C.ar    
   3 C3             2.4020     0.0223    -0.0207 C.ar    
   4 C4             2.3769     1.4283    -0.0129 C.ar    
   5 C5             1.1624     2.0987     0.0022 C.ar    
   6 N6             3.7040    -0.3552    -0.0352 N.2     
   7 C7             4.4709     0.7083    -0.0368 C.2     
   8 N8             3.6969     1.8375    -0.0233 N.pl3   
   9 C9             5.9482     0.6906    -0.0510 C.2     
  10 C10            6.7658    -0.4632    -0.0654 C.2     
  11 C11            8.0581    -0.0538    -0.0759 C.2     
  12 N12            8.0646     1.3050    -0.0684 N.pl3   
  13 N13            6.7360     1.7479    -0.0581 N.2     
  14 N14            6.3191    -1.7941    -0.0684 N.am    
  15 C15            7.2112    -2.8042    -0.0828 C.2     
  16 O16            8.4022    -2.5630    -0.0932 O.2     
  17 C17            6.7394    -4.2101    -0.0860 C.2     
  18 C18            1.1969    -0.6870    -0.0130 C.ar    
  19 N19            5.4964    -4.6234    -0.0765 N.2     
  20 C20           -1.2962    -0.7693     0.0108 C.3     
  21 N21           -1.7317    -1.0105    -1.3713 N.3     
  22 C22           -2.8603    -1.9518    -1.4113 C.3     
  23 C23           -0.6175    -1.4976    -2.1974 C.3     
  24 C24           -1.0994    -1.6784    -3.6393 C.3     
  25 O25           -2.2160    -2.5718    -3.6550 O.3     
  26 C26           -3.3197    -2.1280    -2.8611 C.3     
  27 O27            5.4321    -5.8307    -0.0829 O.3     
  28 C28            6.6476    -6.3949    -0.0978 C.2     
  29 C29            7.5454    -5.3825    -0.1062 C.2     
  30 C30            6.9549    -7.8702    -0.1088 C.3     
  31 H31           -0.9614     1.9066     0.0169 H       
  32 H32            1.1403     3.1784     0.0079 H       
  33 H33            4.0155     2.7537    -0.0212 H       
  34 H34            8.9279    -0.6939    -0.0875 H       
  35 H35            8.8529     1.8703    -0.0730 H       
  36 H36            5.3685    -1.9866    -0.0601 H       
  37 H37            1.2037    -1.7669    -0.0185 H       
  38 H38           -1.1522    -1.7232     0.5181 H       
  39 H39           -2.0559    -0.1898     0.5353 H       
  40 H40           -2.5454    -2.9149    -1.0097 H       
  41 H41           -3.6831    -1.5591    -0.8140 H       
  42 H42            0.1968    -0.7734    -2.1739 H       
  43 H43           -0.2667    -2.4535    -1.8083 H       
  44 H44           -1.4000    -0.7130    -4.0463 H       
  45 H45           -0.2926    -2.0935    -4.2433 H       
  46 H46           -4.1187    -2.8683    -2.9023 H       
  47 H47           -3.6848    -1.1756    -3.2455 H       
  48 H48            8.6232    -5.4490    -0.1187 H       
  49 H49            6.0230    -8.4355    -0.1033 H       
  50 H50            7.5237    -8.1161    -1.0055 H       
  51 H51            7.5403    -8.1260     0.7744 H       
@<TRIPOS>BOND
   1    1    2 ar
   2    1    5 ar
   3    1   31 1
   4    2   18 ar
   5    2   20 1
   6    3    4 ar
   7    3    6 1
   8    3   18 ar
   9    4    5 ar
  10    4    8 1
  11    5   32 1
  12    6    7 2
  13    7    8 1
  14    7    9 1
  15    8   33 1
  16    9   10 1
  17    9   13 2
  18   10   11 2
  19   10   14 1
  20   11   12 1
  21   11   34 1
  22   12   13 1
  23   12   35 1
  24   14   15 am
  25   14   36 1
  26   15   16 2
  27   15   17 1
  28   17   19 2
  29   17   29 1
  30   18   37 1
  31   19   27 1
  32   20   21 1
  33   20   38 1
  34   20   39 1
  35   21   22 1
  36   21   23 1
  37   22   26 1
  38   22   40 1
  39   22   41 1
  40   23   24 1
  41   23   42 1
  42   23   43 1
  43   24   25 1
  44   24   44 1
  45   24   45 1
  46   25   26 1
  47   26   46 1
  48   26   47 1
  49   27   28 1
  50   28   29 2
  51   28   30 1
  52   29   48 1
  53   30   49 1
  54   30   50 1
  55   30   51 1

#	End of record

