#	Name: ASD01140235
#	Creating user name:	WinNT
#	Creation time:	15. 06. 2019 19:00

#	Modifying user name:	WinNT
#	Modification time:	15. 06. 2019 19:00

#	Program:	/corina/corina34_cracker 3.40 0067  02.08.2006

@<TRIPOS>MOLECULE
ASD01140235
  75   82    0    0    0
SMALL
NO_CHARGES


@<TRIPOS>ATOM
   1 C1            -1.7577     1.9786     2.4026 C.2     
   2 C2            -1.8628     0.6432     2.6311 C.2     
   3 S3            -0.2683    -0.0461     2.8835 S.3     
   4 C4             0.4964     1.5290     2.6837 C.2     
   5 C5            -0.4700     2.4810     2.4153 C.2     
   6 C6             1.9345     1.7760     2.8145 C.2     
   7 N7             2.6326     2.6009     2.0960 N.2     
   8 C8             2.0503     3.3401     0.9733 C.3     
   9 C9             0.9580     4.2393     1.4878 C.2     
  10 N10           -0.1604     3.8307     2.1357 N.pl3   
  11 C11           -3.0912    -0.0920     2.6622 C.1     
  12 C12           -0.8923     4.9286     2.4444 C.2     
  13 C13            0.8906     5.5968     1.4021 C.2     
  14 N14           -0.2657     5.9850     2.0047 N.2     
  15 C15            3.0474    12.4840    -2.8971 C.2     
  16 N16            2.5805    13.4800    -2.0965 N.2     
  17 C17            3.9147    13.0478    -3.7832 C.2     
  18 N18            3.9556    14.3726    -3.5039 N.pl3   
  19 C19            3.1246    14.6088    -2.4599 C.2     
  20 C20            4.6925    12.3564    -4.8712 C.3     
  21 N21            6.1252    12.5408    -4.6290 N.2     
  22 C22            6.6768    13.7166    -4.6170 C.2     
  23 C23            5.9763    14.9963    -4.7533 C.2     
  24 C24            4.7439    15.3083    -4.2092 C.2     
  25 S25            6.5965    16.3850    -5.6432 S.3     
  26 C26            5.2006    17.3522    -5.1989 C.2     
  27 C27            4.3459    16.6109    -4.4463 C.2     
  28 C28            4.9934    18.7187    -5.5737 C.1     
  29 C29            1.5044     9.2188    -1.8595 C.3     
  30 C30           -4.0984    -0.6947     2.6877 C.1     
  31 C31            4.8236    19.8389    -5.8810 C.1     
  32 C32            2.7117     8.6250     0.1242 C.3     
  33 C33            8.1480    13.7686    -4.4496 C.ar    
  34 C34            8.8959    12.5890    -4.4473 C.ar    
  35 C35           10.2686    12.6458    -4.2905 C.ar    
  36 C36           10.8990    13.8665    -4.1364 C.ar    
  37 C37           10.1622    15.0379    -4.1380 C.ar    
  38 C38            8.7928    14.9959    -4.2993 C.ar    
  39 C39            2.6567     1.0161     3.8615 C.ar    
  40 C40            1.9510     0.2102     4.7543 C.ar    
  41 C41            2.6288    -0.4954     5.7269 C.ar    
  42 C42            4.0066    -0.4055     5.8191 C.ar    
  43 C43            4.7141     0.3914     4.9384 C.ar    
  44 C44            4.0478     1.0992     3.9549 C.ar    
  45 F45            8.2799    11.3960    -4.5974 F       
  46 F46            4.7392     1.8779     3.0942 F       
  47 O47            2.6030     8.5000    -1.2952 O.3     
  48 C48            1.8852     6.4808     0.7738 C.2     
  49 O49            1.6891     7.8144     0.7612 O.3     
  50 O50            2.8836     6.0085     0.2663 O.2     
  51 C51            2.6867    11.0596    -2.8165 C.2     
  52 O52            1.8137    10.6374    -1.8803 O.3     
  53 O53            3.1761    10.2639    -3.5941 O.2     
  54 H54           -2.6196     2.6029     2.2193 H       
  55 H55            2.8223     3.9422     0.4941 H       
  56 H56            1.6341     2.6377     0.2513 H       
  57 H57           -1.8371     4.9289     2.9677 H       
  58 H58            2.9423    15.5713    -2.0050 H       
  59 H59            4.4565    11.2923    -4.8678 H       
  60 H60            4.4281    12.7861    -5.8374 H       
  61 H61            3.4200    17.0113    -4.0605 H       
  62 H62            1.3266     8.8707    -2.8770 H       
  63 H63            0.6119     9.0504    -1.2567 H       
  64 H64           -4.9992    -1.2338     2.7105 H       
  65 H65            4.6717    20.8409    -6.1559 H       
  66 H66            3.6965     8.2851     0.4445 H       
  67 H67            2.5773     9.6686     0.4084 H       
  68 H68           10.8491    11.7351    -4.2880 H       
  69 H69           11.9713    13.9060    -4.0139 H       
  70 H70           10.6612    15.9880    -4.0172 H       
  71 H71            8.2200    15.9115    -4.3002 H       
  72 H72            0.8756     0.1389     4.6848 H       
  73 H73            2.0824    -1.1196     6.4184 H       
  74 H74            4.5316    -0.9601     6.5829 H       
  75 H75            5.7893     0.4577     5.0158 H       
@<TRIPOS>BOND
   1    1    2 2
   2    1    5 1
   3    1   54 1
   4    2    3 1
   5    2   11 1
   6    3    4 1
   7    4    5 2
   8    4    6 1
   9    5   10 1
  10    6    7 2
  11    6   39 1
  12    7    8 1
  13    8    9 1
  14    8   55 1
  15    8   56 1
  16    9   10 1
  17    9   13 2
  18   10   12 1
  19   11   30 3
  20   12   14 2
  21   12   57 1
  22   13   14 1
  23   13   48 1
  24   15   16 1
  25   15   17 2
  26   15   51 1
  27   16   19 2
  28   17   18 1
  29   17   20 1
  30   18   19 1
  31   18   24 1
  32   19   58 1
  33   20   21 1
  34   20   59 1
  35   20   60 1
  36   21   22 2
  37   22   23 1
  38   22   33 1
  39   23   24 2
  40   23   25 1
  41   24   27 1
  42   25   26 1
  43   26   27 2
  44   26   28 1
  45   27   61 1
  46   28   31 3
  47   29   52 1
  48   29   47 1
  49   29   62 1
  50   29   63 1
  51   30   64 1
  52   31   65 1
  53   32   47 1
  54   32   49 1
  55   32   66 1
  56   32   67 1
  57   33   34 ar
  58   33   38 ar
  59   34   35 ar
  60   34   45 1
  61   35   36 ar
  62   35   68 1
  63   36   37 ar
  64   36   69 1
  65   37   38 ar
  66   37   70 1
  67   38   71 1
  68   39   40 ar
  69   39   44 ar
  70   40   41 ar
  71   40   72 1
  72   41   42 ar
  73   41   73 1
  74   42   43 ar
  75   42   74 1
  76   43   44 ar
  77   43   75 1
  78   44   46 1
  79   48   49 1
  80   48   50 2
  81   51   52 1
  82   51   53 2

#	End of record

