#	Name: ASD01209180
#	Creating user name:	WinNT
#	Creation time:	15. 06. 2019 19:11

#	Modifying user name:	WinNT
#	Modification time:	15. 06. 2019 19:11

#	Program:	/corina/corina34_cracker 3.40 0067  02.08.2006

@<TRIPOS>MOLECULE
ASD01209180
  77   79    0    0    0
SMALL
NO_CHARGES


@<TRIPOS>ATOM
   1 O1            -0.0472     1.4626    -0.0050 O.3     
   2 O2             2.1134     2.1022     1.3496 O.3     
   3 C3             8.5153     9.3204     2.7629 C.ar    
   4 C4             8.1972     9.1774     4.1055 C.ar    
   5 C5             7.0738     8.4559     4.4834 C.ar    
   6 C6             6.2647     7.8759     3.5207 C.ar    
   7 C7             6.5811     8.0172     2.1689 C.ar    
   8 C8             7.7086     8.7480     1.7931 C.ar    
   9 O9             6.7672     8.3181     5.8003 O.3     
  10 C10            5.7210     7.3990     1.1378 C.2     
  11 N11            4.6294     6.6977     1.5027 N.am    
  12 O12            5.9982     7.5232    -0.0393 O.2     
  13 C13            3.8213     6.1168     0.5339 C.2     
  14 P14            1.2931     2.3545    -0.0126 P.3     
  15 O15            2.1320     1.9744    -1.1712 O.2     
  16 C16            0.8487     4.1181    -0.1367 C.3     
  17 N17            2.7524     5.4243     0.7761 N.2     
  18 S18            4.0872     6.2171    -1.1520 S.3     
  19 C19            2.6468     5.2467    -1.4476 C.2     
  20 C20            2.1024     4.9441    -0.2675 C.2     
  21 C21           -0.0314     0.0337    -0.0213 C.3     
  22 C22           -1.4680    -0.4924    -0.0082 C.3     
  23 C23            2.6931     0.8403     1.6867 C.3     
  24 C24            3.3963     0.9477     3.0413 C.3     
  25 O25            9.6170    10.0278     2.3983 O.3     
  26 C26            9.9523    10.0360     1.0092 C.3     
  27 C27           11.4500    10.3036     0.8476 C.3     
  28 C28            9.1584    11.1346     0.2994 C.3     
  29 O29           11.7523    11.6189     1.3172 O.3     
  30 C30           13.1330    11.9713     1.2103 C.3     
  31 C31            7.6449     8.9421     6.7395 C.3     
  32 C32            7.1415     8.6797     8.1603 C.3     
  33 C33            8.0671     9.3378     9.1508 C.ar    
  34 C34            7.8319    10.6393     9.5554 C.ar    
  35 C35            9.1464     8.6370     9.6573 C.ar    
  36 C36            9.9962     9.2364    10.5658 C.ar    
  37 C37            9.7660    10.5458    10.9706 C.ar    
  38 C38            8.6780    11.2455    10.4628 C.ar    
  39 S39           10.8474    11.3147    12.1301 S.3     
  40 C40           10.1313    12.9705    12.3200 C.3     
  41 H41            8.8258     9.6287     4.8589 H       
  42 H42            5.3908     7.3142     3.8158 H       
  43 H43            7.9571     8.8598     0.7481 H       
  44 H44            4.4083     6.5986     2.4419 H       
  45 H45            0.2184     4.2733    -1.0123 H       
  46 H46            0.3065     4.4201     0.7594 H       
  47 H47            2.2685     4.9515    -2.4151 H       
  48 H48            0.4746    -0.3137    -0.9220 H       
  49 H49            0.4982    -0.3338     0.8577 H       
  50 H50           -1.4560    -1.5823    -0.0207 H       
  51 H51           -1.9740    -0.1449     0.8925 H       
  52 H52           -1.9976    -0.1248    -0.8872 H       
  53 H53            1.9100     0.0842     1.7428 H       
  54 H54            3.4173     0.5575     0.9228 H       
  55 H55            3.8384    -0.0148     3.2985 H       
  56 H56            4.1793     1.7039     2.9852 H       
  57 H57            2.6720     1.2306     3.8052 H       
  58 H58            9.7065     9.0690     0.5704 H       
  59 H59           12.0142     9.5725     1.4266 H       
  60 H60           11.7222    10.2220    -0.2047 H       
  61 H61            9.4141    11.1409    -0.7602 H       
  62 H62            8.0914    10.9440     0.4145 H       
  63 H63            9.4041    12.1017     0.7382 H       
  64 H64           13.2799    12.9835     1.5870 H       
  65 H65           13.7322    11.2748     1.7968 H       
  66 H66           13.4401    11.9243     0.1655 H       
  67 H67            8.6482     8.5310     6.6279 H       
  68 H68            7.6699    10.0162     6.5554 H       
  69 H69            6.1382     9.0909     8.2719 H       
  70 H70            7.1165     7.6057     8.3444 H       
  71 H71            6.9858    11.1822     9.1609 H       
  72 H72            9.3247     7.6194     9.3422 H       
  73 H73           10.8384     8.6882    10.9615 H       
  74 H74            8.4961    12.2632    10.7753 H       
  75 H75           10.1242    13.4762    11.3545 H       
  76 H76            9.1105    12.8843    12.6925 H       
  77 H77           10.7287    13.5458    13.0272 H       
@<TRIPOS>BOND
   1    1   21 1
   2    1   14 1
   3    2   23 1
   4    2   14 1
   5    3    4 ar
   6    3   25 1
   7    3    8 ar
   8    4    5 ar
   9    4   41 1
  10    5    6 ar
  11    5    9 1
  12    6    7 ar
  13    6   42 1
  14    7    8 ar
  15    7   10 1
  16    8   43 1
  17    9   31 1
  18   10   11 am
  19   10   12 2
  20   11   13 1
  21   11   44 1
  22   13   17 2
  23   13   18 1
  24   14   15 2
  25   14   16 1
  26   16   20 1
  27   16   45 1
  28   16   46 1
  29   17   20 1
  30   18   19 1
  31   19   20 2
  32   19   47 1
  33   21   22 1
  34   21   48 1
  35   21   49 1
  36   22   50 1
  37   22   51 1
  38   22   52 1
  39   23   24 1
  40   23   53 1
  41   23   54 1
  42   24   55 1
  43   24   56 1
  44   24   57 1
  45   25   26 1
  46   26   27 1
  47   26   28 1
  48   26   58 1
  49   27   29 1
  50   27   59 1
  51   27   60 1
  52   28   61 1
  53   28   62 1
  54   28   63 1
  55   29   30 1
  56   30   64 1
  57   30   65 1
  58   30   66 1
  59   31   32 1
  60   31   67 1
  61   31   68 1
  62   32   33 1
  63   32   69 1
  64   32   70 1
  65   33   34 ar
  66   33   35 ar
  67   34   38 ar
  68   34   71 1
  69   35   36 ar
  70   35   72 1
  71   36   37 ar
  72   36   73 1
  73   37   38 ar
  74   37   39 1
  75   38   74 1
  76   39   40 1
  77   40   75 1
  78   40   76 1
  79   40   77 1

#	End of record

