#	Name: ASD01885659
#	Creating user name:	WinNT
#	Creation time:	15. 06. 2019 19:49

#	Modifying user name:	WinNT
#	Modification time:	15. 06. 2019 19:49

#	Program:	/corina/corina34_cracker 3.40 0067  02.08.2006

@<TRIPOS>MOLECULE
ASD01885659
  66   68    0    0    0
SMALL
NO_CHARGES


@<TRIPOS>ATOM
   1 C1            -0.0170     1.4041     0.0098 C.ar    
   2 C2             1.2136     2.1082     0.0018 C.ar    
   3 C3             1.1959     3.5259     0.0097 C.ar    
   4 C4            -0.0388     4.1602     0.0249 C.ar    
   5 C5            -1.2084     3.3917     0.0319 C.ar    
   6 N6            -1.1703     2.0727     0.0299 N.ar    
   7 C7             0.0021    -0.0041     0.0020 C.ar    
   8 C8             1.1922    -0.6628    -0.0129 C.ar    
   9 C9             2.3993     0.0338    -0.0203 C.ar    
  10 C10            2.4201     1.3962    -0.0132 C.ar    
  11 C11            2.4548     4.3054     0.0024 C.ar    
  12 C12            2.6330     5.3384    -0.9182 C.ar    
  13 C13            3.8074     6.0615    -0.9210 C.ar    
  14 C14            4.8096     5.7633    -0.0113 C.ar    
  15 C15            4.6374     4.7381     0.9052 C.ar    
  16 C16            3.4644     4.0129     0.9198 C.ar    
  17 C17           -2.5233     4.0769     0.0552 C.2     
  18 N18           -3.6601     3.3531     0.0740 N.am    
  19 O19           -2.5758     5.2907     0.0574 O.2     
  20 C20            1.2056    -2.1697    -0.0211 C.3     
  21 F21            5.9585     6.4742    -0.0183 F       
  22 N22            1.1967    -2.6506    -1.4049 N.am    
  23 C23            2.3597    -2.8613    -2.0526 C.2     
  24 O24            2.3515    -3.3031    -3.3239 O.3     
  25 O25            0.0173    -3.3240    -3.3016 O.3     
  26 C26            0.0255    -2.8822    -2.0303 C.2     
  27 O27            3.4152    -2.6526    -1.4890 O.2     
  28 O28           -1.0226    -2.6923    -1.4466 O.2     
  29 C29            3.6411    -3.5079    -3.9589 C.3     
  30 C30            4.4399    -4.5460    -3.1681 C.3     
  31 C31            3.4315    -4.0076    -5.3897 C.3     
  32 C32            4.4110    -2.1860    -3.9880 C.3     
  33 C33           -1.2803    -3.5520    -3.9119 C.3     
  34 C34           -2.0741    -2.2441    -3.9261 C.3     
  35 C35           -1.0891    -4.0481    -5.3466 C.3     
  36 C36           -2.0451    -4.6040    -3.1062 C.3     
  37 H37           -0.0964     5.2386     0.0317 H       
  38 H38           -0.9245    -0.5588     0.0083 H       
  39 H39            3.3303    -0.5134    -0.0315 H       
  40 H40            3.3620     1.9245    -0.0186 H       
  41 H41            1.8528     5.5713    -1.6277 H       
  42 H42            3.9464     6.8611    -1.6335 H       
  43 H43            5.4214     4.5093     1.6118 H       
  44 H44            3.3311     3.2142     1.6344 H       
  45 H45           -3.6181     2.3840     0.0723 H       
  46 H46           -4.5202     3.8013     0.0893 H       
  47 H47            2.1037    -2.5278     0.4822 H       
  48 H48            0.3238    -2.5437     0.4992 H       
  49 H49            3.8915    -5.4877    -3.1473 H       
  50 H50            5.4080    -4.6997    -3.6448 H       
  51 H51            4.5893    -4.1900    -2.1488 H       
  52 H52            2.8624    -3.2681    -5.9531 H       
  53 H53            4.3996    -4.1614    -5.8664 H       
  54 H54            2.8831    -4.9494    -5.3690 H       
  55 H55            4.5603    -1.8300    -2.9687 H       
  56 H56            5.3791    -2.3398    -4.4647 H       
  57 H57            3.8419    -1.4465    -4.5514 H       
  58 H58           -1.5292    -1.4946    -4.5002 H       
  59 H59           -3.0482    -2.4152    -4.3843 H       
  60 H60           -2.2103    -1.8907    -2.9041 H       
  61 H61           -0.5236    -4.9799    -5.3365 H       
  62 H62           -2.0632    -4.2192    -5.8047 H       
  63 H63           -0.5442    -3.2986    -5.9206 H       
  64 H64           -2.1814    -4.2506    -2.0841 H       
  65 H65           -3.0192    -4.7752    -3.5644 H       
  66 H66           -1.4796    -5.5358    -3.0961 H       
@<TRIPOS>BOND
   1    1    7 ar
   2    1    2 ar
   3    1    6 ar
   4    2    3 ar
   5    2   10 ar
   6    3   11 1
   7    3    4 ar
   8    4    5 ar
   9    4   37 1
  10    5   17 1
  11    5    6 ar
  12    7    8 ar
  13    7   38 1
  14    8    9 ar
  15    8   20 1
  16    9   10 ar
  17    9   39 1
  18   10   40 1
  19   11   12 ar
  20   11   16 ar
  21   12   13 ar
  22   12   41 1
  23   13   14 ar
  24   13   42 1
  25   14   15 ar
  26   14   21 1
  27   15   16 ar
  28   15   43 1
  29   16   44 1
  30   17   18 am
  31   17   19 2
  32   18   45 1
  33   18   46 1
  34   20   22 1
  35   20   47 1
  36   20   48 1
  37   22   23 am
  38   22   26 am
  39   23   24 1
  40   23   27 2
  41   24   29 1
  42   25   26 1
  43   25   33 1
  44   26   28 2
  45   29   30 1
  46   29   31 1
  47   29   32 1
  48   30   49 1
  49   30   50 1
  50   30   51 1
  51   31   52 1
  52   31   53 1
  53   31   54 1
  54   32   55 1
  55   32   56 1
  56   32   57 1
  57   33   34 1
  58   33   35 1
  59   33   36 1
  60   34   58 1
  61   34   59 1
  62   34   60 1
  63   35   61 1
  64   35   62 1
  65   35   63 1
  66   36   64 1
  67   36   65 1
  68   36   66 1

#	End of record

