#	Name: ASD01881992
#	Creating user name:	WinNT
#	Creation time:	15. 06. 2019 19:43

#	Modifying user name:	WinNT
#	Modification time:	15. 06. 2019 19:43

#	Program:	/corina/corina34_cracker 3.40 0067  02.08.2006

@<TRIPOS>MOLECULE
ASD01881992
  57   60    0    0    0
SMALL
NO_CHARGES


@<TRIPOS>ATOM
   1 C1            -0.0184     1.5028     0.0103 C.2     
   2 C2             0.0021    -0.0041     0.0020 C.3     
   3 C3            -0.5881    -0.5293     1.3123 C.3     
   4 O4             1.3494    -0.4614    -0.1307 O.3     
   5 O5             1.0236     2.1234     0.0037 O.2     
   6 N6            -1.1946     2.1607     0.0195 N.am    
   7 C7            -1.2371     3.6309     0.0277 C.3     
   8 C8            -2.1670     4.0972    -1.0975 C.3     
   9 N9            -3.4717     3.4372    -0.9554 N.3     
  10 C10           -3.3510     1.9807    -1.1034 C.3     
  11 C11           -2.4697     1.4277     0.0154 C.3     
  12 C12           -4.4452     3.9844    -1.9097 C.3     
  13 C13           -5.7046     3.1156    -1.9082 C.3     
  14 C14           -6.7186     3.6856    -2.9022 C.3     
  15 O15           -7.8948     2.8741    -2.9008 O.3     
  16 N16          -12.0984     4.1537    -6.1715 N.pl3   
  17 N17          -12.9253     3.0889    -5.7839 N.2     
  18 N18          -12.3203     2.3768    -4.8999 N.2     
  19 C19          -11.1000     2.8878    -4.6416 C.ar    
  20 C20          -10.9354     4.0286    -5.4461 C.ar    
  21 C21          -10.0637     2.5026    -3.7799 C.ar    
  22 C22           -8.9021     3.2455    -3.7355 C.ar    
  23 C23           -8.7537     4.3735    -4.5390 C.ar    
  24 C24           -9.7558     4.7618    -5.3828 C.ar    
  25 C25          -12.4089     5.1907    -7.1585 C.3     
  26 C26          -13.0851     6.3727    -6.4609 C.3     
  27 C27          -13.3842     7.6138    -7.3042 C.3     
  28 C28          -14.5261     6.6978    -6.8592 C.3     
  29 Br29         -10.2564     0.9728    -2.6852 Br      
  30 H30           -0.5904    -0.3709    -0.8362 H       
  31 H31            0.0044    -0.1625     2.1504 H       
  32 H32           -1.6158    -0.1805     1.4135 H       
  33 H33           -0.5733    -1.6192     1.3063 H       
  34 H34            1.4384    -1.4243    -0.1434 H       
  35 H35           -1.6189     3.9808     0.9868 H       
  36 H36           -0.2352     4.0271    -0.1375 H       
  37 H37           -2.2975     5.1777    -1.0373 H       
  38 H38           -1.7306     3.8364    -2.0617 H       
  39 H39           -4.3401     1.5262    -1.0474 H       
  40 H40           -2.8981     1.7493    -2.0675 H       
  41 H41           -2.2822     0.3679    -0.1578 H       
  42 H42           -2.9721     1.5617     0.9733 H       
  43 H43           -4.7057     5.0023    -1.6197 H       
  44 H44           -4.0099     3.9915    -2.9090 H       
  45 H45           -5.4442     2.0977    -2.1983 H       
  46 H46           -6.1399     3.1085    -0.9090 H       
  47 H47           -6.9790     4.7035    -2.6121 H       
  48 H48           -6.2833     3.6927    -3.9015 H       
  49 H49           -7.8392     4.9464    -4.4942 H       
  50 H50           -9.6311     5.6381    -6.0017 H       
  51 H51          -11.4875     5.5279    -7.6334 H       
  52 H52          -13.0795     4.7832    -7.9150 H       
  53 H53          -12.8033     6.5278    -5.4194 H       
  54 H54          -13.2996     8.5854    -6.8174 H       
  55 H55          -13.0993     7.5882    -8.3559 H       
  56 H56          -14.9924     6.0697    -7.6182 H       
  57 H57          -15.1927     7.0668    -6.0797 H       
@<TRIPOS>BOND
   1    1    2 1
   2    1    5 2
   3    1    6 am
   4    2    3 1
   5    2    4 1
   6    2   30 1
   7    3   31 1
   8    3   32 1
   9    3   33 1
  10    4   34 1
  11    6    7 1
  12    6   11 1
  13    7    8 1
  14    7   35 1
  15    7   36 1
  16    8    9 1
  17    8   37 1
  18    8   38 1
  19    9   10 1
  20    9   12 1
  21   10   11 1
  22   10   39 1
  23   10   40 1
  24   11   41 1
  25   11   42 1
  26   12   13 1
  27   12   43 1
  28   12   44 1
  29   13   14 1
  30   13   45 1
  31   13   46 1
  32   14   15 1
  33   14   47 1
  34   14   48 1
  35   15   22 1
  36   16   17 1
  37   16   20 1
  38   16   25 1
  39   17   18 2
  40   18   19 1
  41   19   20 ar
  42   19   21 ar
  43   20   24 ar
  44   21   22 ar
  45   21   29 1
  46   22   23 ar
  47   23   24 ar
  48   23   49 1
  49   24   50 1
  50   25   26 1
  51   25   51 1
  52   25   52 1
  53   26   27 1
  54   26   28 1
  55   26   53 1
  56   27   28 1
  57   27   54 1
  58   27   55 1
  59   28   56 1
  60   28   57 1

#	End of record

