#	Name: ASD01910875
#	Creating user name:	WinNT
#	Creation time:	15. 06. 2019 19:56

#	Modifying user name:	WinNT
#	Modification time:	15. 06. 2019 19:56

#	Program:	/corina/corina34_cracker 3.40 0067  02.08.2006

@<TRIPOS>MOLECULE
ASD01910875
  51   54    0    0    0
SMALL
NO_CHARGES


@<TRIPOS>ATOM
   1 C1             0.2615     1.1192    -0.3759 C.ar    
   2 C2             0.2052    -0.2602    -0.3007 C.ar    
   3 N3            -0.9755    -0.8574    -0.2355 N.ar    
   4 C4            -2.0960    -0.1513    -0.2416 C.ar    
   5 N5            -2.0836     1.1715    -0.3130 N.ar    
   6 C6            -0.9358     1.8351    -0.3744 C.ar    
   7 N7            -3.3105    -0.8121    -0.1721 N.3     
   8 C8            -3.1153    -2.2663    -0.1000 C.3     
   9 C9            -4.4638    -2.9472     0.1573 C.3     
  10 N10           -5.4174    -2.4978    -0.8684 N.am    
  11 C11           -5.5665    -1.0521    -1.0942 C.3     
  12 C12           -4.1746    -0.4458    -1.3022 C.3     
  13 C13           -6.1358    -3.3872    -1.5821 C.2     
  14 C14           -7.1773    -2.9142    -2.5191 C.ar    
  15 C15           -7.3448    -3.5434    -3.7548 C.ar    
  16 C16           -8.3169    -3.1036    -4.6318 C.ar    
  17 C17           -9.1297    -2.0402    -4.2949 C.ar    
  18 C18           -8.9731    -1.4004    -3.0613 C.ar    
  19 C19           -7.9974    -1.8439    -2.1688 C.ar    
  20 C20           -9.8166    -0.2968    -2.7128 C.1     
  21 O21           -5.9275    -4.5780    -1.4555 O.2     
  22 C22          -10.5080     0.6079    -2.4270 C.1     
  23 C23          -11.3515     1.7114    -2.0785 C.ar    
  24 C24          -11.2039     2.3580    -0.8489 C.ar    
  25 N25          -11.9799     3.3726    -0.5291 N.ar    
  26 C26          -12.9174     3.8170    -1.3439 C.ar    
  27 C27          -13.1276     3.2308    -2.5796 C.ar    
  28 C28          -12.3355     2.1652    -2.9673 C.ar    
  29 O29           -0.9274     3.1884    -0.4474 O.3     
  30 C30           -2.1963     3.8456    -0.4542 C.3     
  31 Br31           1.9239     2.0154    -0.4707 Br      
  32 H32            1.1136    -0.8443    -0.2956 H       
  33 H33           -2.7007    -2.6248    -1.0422 H       
  34 H34           -2.4283    -2.5012     0.7130 H       
  35 H35           -4.3449    -4.0291     0.0978 H       
  36 H36           -4.8313    -2.6702     1.1454 H       
  37 H37           -6.1766    -0.8811    -1.9810 H       
  38 H38           -6.0399    -0.5929    -0.2264 H       
  39 H39           -4.2558     0.6396    -1.3611 H       
  40 H40           -3.7453    -0.8296    -2.2276 H       
  41 H41           -6.7121    -4.3758    -4.0253 H       
  42 H42           -8.4413    -3.5939    -5.5860 H       
  43 H43           -9.8878    -1.7014    -4.9854 H       
  44 H44           -7.8717    -1.3538    -1.2147 H       
  45 H45          -10.4475     2.0227    -0.1548 H       
  46 H46          -13.5316     4.6522    -1.0413 H       
  47 H47          -13.8992     3.6043    -3.2365 H       
  48 H48          -12.4779     1.6891    -3.9262 H       
  49 H49           -2.7749     3.5095    -1.3146 H       
  50 H50           -2.7350     3.6050     0.4624 H       
  51 H51           -2.0468     4.9236    -0.5155 H       
@<TRIPOS>BOND
   1    1    2 ar
   2    1   31 1
   3    1    6 ar
   4    2    3 ar
   5    2   32 1
   6    3    4 ar
   7    4    5 ar
   8    4    7 1
   9    5    6 ar
  10    6   29 1
  11    7    8 1
  12    7   12 1
  13    8    9 1
  14    8   33 1
  15    8   34 1
  16    9   10 1
  17    9   35 1
  18    9   36 1
  19   10   11 1
  20   10   13 am
  21   11   12 1
  22   11   37 1
  23   11   38 1
  24   12   39 1
  25   12   40 1
  26   13   14 1
  27   13   21 2
  28   14   15 ar
  29   14   19 ar
  30   15   16 ar
  31   15   41 1
  32   16   17 ar
  33   16   42 1
  34   17   18 ar
  35   17   43 1
  36   18   19 ar
  37   18   20 1
  38   19   44 1
  39   20   22 3
  40   22   23 1
  41   23   24 ar
  42   23   28 ar
  43   24   25 ar
  44   24   45 1
  45   25   26 ar
  46   26   27 ar
  47   26   46 1
  48   27   28 ar
  49   27   47 1
  50   28   48 1
  51   29   30 1
  52   30   49 1
  53   30   50 1
  54   30   51 1

#	End of record

