#	Name: ASD01914484
#	Creating user name:	WinNT
#	Creation time:	15. 06. 2019 20:03

#	Modifying user name:	WinNT
#	Modification time:	15. 06. 2019 20:03

#	Program:	/corina/corina34_cracker 3.40 0067  02.08.2006

@<TRIPOS>MOLECULE
ASD01914484
  48   52    0    0    0
SMALL
NO_CHARGES


@<TRIPOS>ATOM
   1 C1            -0.0187     1.5258     0.0104 C.3     
   2 C2             0.0021    -0.0041     0.0020 C.3     
   3 C3             0.7182    -0.4975    -1.2568 C.3     
   4 C4            -0.0218     0.0093    -2.4963 C.3     
   5 C5            -0.0425     1.5392    -2.4879 C.3     
   6 C6             1.3929     2.0688    -2.4988 C.3     
   7 C7             2.1328     1.5619    -1.2592 C.3     
   8 C8             1.4167     2.0553    -0.0004 C.3     
   9 C9             2.1536     0.0321    -1.2676 C.3     
  10 C10           -0.7587     2.0326    -1.2291 C.3     
  11 C11           -1.5295     3.7931     2.6435 C.2     
  12 C12           -1.7324     5.1022     2.9784 C.2     
  13 C13           -2.4102     5.2615     4.1637 C.2     
  14 C14           -2.7516     4.1236     4.7798 C.2     
  15 S15           -2.2301     2.7663     3.8872 S.3     
  16 C16           -0.8434     3.3203     1.4375 C.2     
  17 O17           -0.3994     4.1217     0.6364 O.2     
  18 N18           -0.7044     1.9982     1.2158 N.am    
  19 C19            1.3410    -4.0884    -2.2929 C.2     
  20 C20            1.8990    -4.8683    -3.2664 C.2     
  21 C21            1.7799    -6.2153    -3.0188 C.2     
  22 C22            1.1468    -6.5298    -1.8826 C.2     
  23 S23            0.6573    -5.1247    -1.0477 S.3     
  24 C24            1.3211    -2.6228    -2.2848 C.2     
  25 O25            1.8310    -2.0022    -3.1992 O.2     
  26 N26            0.7381    -1.9623    -1.2648 N.am    
  27 H27            0.5293    -0.3651     0.8851 H       
  28 H28           -1.0205    -0.3814     0.0098 H       
  29 H29            0.4884    -0.3422    -3.3931 H       
  30 H30           -1.0444    -0.3679    -2.4886 H       
  31 H31           -0.5697     1.9003    -3.3710 H       
  32 H32            1.9030     1.7172    -3.3956 H       
  33 H33            1.3781     3.1587    -2.4928 H       
  34 H34            3.1554     1.9392    -1.2670 H       
  35 H35            1.4019     3.1452     0.0056 H       
  36 H36            1.9439     1.6943     0.8826 H       
  37 H37            2.6808    -0.3290    -0.3846 H       
  38 H38            2.6638    -0.3194    -2.1644 H       
  39 H39           -1.7813     1.6553    -1.2214 H       
  40 H40           -0.7734     3.1225    -1.2231 H       
  41 H41           -1.3934     5.9295     2.3725 H       
  42 H42           -2.6495     6.2338     4.5684 H       
  43 H43           -3.2859     4.0714     5.7169 H       
  44 H44           -1.0583     1.3595     1.8542 H       
  45 H45            2.3846    -4.4665    -4.1434 H       
  46 H46            2.1686    -6.9648    -3.6922 H       
  47 H47            0.9693    -7.5385    -1.5398 H       
  48 H48            0.3316    -2.4569    -0.5361 H       
@<TRIPOS>BOND
   1    1    2 1
   2    1    8 1
   3    1   10 1
   4    1   18 1
   5    2    3 1
   6    2   27 1
   7    2   28 1
   8    3    4 1
   9    3    9 1
  10    3   26 1
  11    4    5 1
  12    4   29 1
  13    4   30 1
  14    5    6 1
  15    5   10 1
  16    5   31 1
  17    6    7 1
  18    6   32 1
  19    6   33 1
  20    7    8 1
  21    7    9 1
  22    7   34 1
  23    8   35 1
  24    8   36 1
  25    9   37 1
  26    9   38 1
  27   10   39 1
  28   10   40 1
  29   11   12 2
  30   11   15 1
  31   11   16 1
  32   12   13 1
  33   12   41 1
  34   13   14 2
  35   13   42 1
  36   14   15 1
  37   14   43 1
  38   16   17 2
  39   16   18 am
  40   18   44 1
  41   19   20 2
  42   19   23 1
  43   19   24 1
  44   20   21 1
  45   20   45 1
  46   21   22 2
  47   21   46 1
  48   22   23 1
  49   22   47 1
  50   24   25 2
  51   24   26 am
  52   26   48 1

#	End of record

