#	Name: ASD00122093
#	Creating user name:	WinNT
#	Creation time:	15. 06. 2019 18:31

#	Modifying user name:	WinNT
#	Modification time:	15. 06. 2019 18:31

#	Program:	/corina/corina34_cracker 3.40 0067  02.08.2006

@<TRIPOS>MOLECULE
ASD00122093
  40   43    0    0    0
SMALL
NO_CHARGES


@<TRIPOS>ATOM
   1 C1            -0.0170     1.4048     0.0098 C.ar    
   2 C2             0.0021    -0.0041     0.0020 C.ar    
   3 C3            -1.2065    -0.6813     0.0099 C.ar    
   4 N4            -2.3463     0.0408     0.0250 N.ar    
   5 C5            -2.3180     1.3515     0.0321 C.ar    
   6 N6            -1.1869     2.0317     0.0299 N.ar    
   7 S7             1.3475    -1.1288    -0.0174 S.3     
   8 C8             0.2905    -2.5335    -0.0151 C.ar    
   9 C9            -1.0412    -2.1398     0.0000 C.ar    
  10 N10            0.6046    -3.8350    -0.0255 N.ar    
  11 C11           -0.3082    -4.7804    -0.0220 C.ar    
  12 C12           -1.6549    -4.4730    -0.0076 C.ar    
  13 C13           -2.0455    -3.1408     0.0048 C.ar    
  14 S14            1.4885     2.3201     0.0003 S.3     
  15 C15            0.8312     4.0065     0.0156 C.3     
  16 C16            1.9726     4.9906     0.0100 C.ar    
  17 C17            2.4844     5.4482    -1.1898 C.ar    
  18 C18            3.5312     6.3507    -1.1956 C.ar    
  19 C19            4.0667     6.7962    -0.0003 C.ar    
  20 C20            3.5540     6.3379     1.2002 C.ar    
  21 C21            2.5035     5.4396     1.2048 C.ar    
  22 N22           -3.3903    -2.7961     0.0192 N.3     
  23 C23           -4.0811    -3.3216    -1.1659 C.3     
  24 C24           -4.0387    -3.2571     1.2542 C.3     
  25 Cl25           5.3818     7.9294    -0.0067 Cl      
  26 H26           -3.2523     1.8932     0.0442 H       
  27 H27           -0.0002    -5.8155    -0.0308 H       
  28 H28           -2.3950    -5.2596    -0.0053 H       
  29 H29            0.2121     4.1632    -0.8676 H       
  30 H30            0.2291     4.1536     0.9122 H       
  31 H31            2.0665     5.1001    -2.1229 H       
  32 H32            3.9312     6.7079    -2.1331 H       
  33 H33            3.9717     6.6853     2.1337 H       
  34 H34            2.1032     5.0818     2.1419 H       
  35 H35           -3.9990    -4.4084    -1.1822 H       
  36 H36           -5.1328    -3.0372    -1.1293 H       
  37 H37           -3.6243    -2.9092    -2.0655 H       
  38 H38           -3.5510    -2.7977     2.1139 H       
  39 H39           -5.0912    -2.9740     1.2394 H       
  40 H40           -3.9551    -4.3415     1.3255 H       
@<TRIPOS>BOND
   1    1    2 ar
   2    1   14 1
   3    1    6 ar
   4    2    3 ar
   5    2    7 1
   6    3    4 ar
   7    3    9 1
   8    4    5 ar
   9    5    6 ar
  10    5   26 1
  11    7    8 1
  12    8    9 ar
  13    8   10 ar
  14    9   13 ar
  15   10   11 ar
  16   11   12 ar
  17   11   27 1
  18   12   13 ar
  19   12   28 1
  20   13   22 1
  21   14   15 1
  22   15   16 1
  23   15   29 1
  24   15   30 1
  25   16   17 ar
  26   16   21 ar
  27   17   18 ar
  28   17   31 1
  29   18   19 ar
  30   18   32 1
  31   19   20 ar
  32   19   25 1
  33   20   21 ar
  34   20   33 1
  35   21   34 1
  36   22   23 1
  37   22   24 1
  38   23   35 1
  39   23   36 1
  40   23   37 1
  41   24   38 1
  42   24   39 1
  43   24   40 1

#	End of record

