#	Name: ASD01883673
#	Creating user name:	WinNT
#	Creation time:	15. 06. 2019 19:46

#	Modifying user name:	WinNT
#	Modification time:	15. 06. 2019 19:46

#	Program:	/corina/corina34_cracker 3.40 0067  02.08.2006

@<TRIPOS>MOLECULE
ASD01883673
  48   52    0    0    0
SMALL
NO_CHARGES


@<TRIPOS>ATOM
   1 C1            -0.4013     0.7209    -1.0993 C.2     
   2 C2             0.0021    -0.0041     0.0020 C.2     
   3 C3            -0.8245    -0.0443     1.1450 C.2     
   4 C4            -1.9964     0.6200     1.1579 C.2     
   5 N5            -2.4052     1.3408     0.0726 N.pl3   
   6 C6            -1.6278     1.4094    -1.0546 C.2     
   7 C7            -3.5281     2.0913    -0.1700 C.2     
   8 C8            -3.4143     2.5869    -1.4201 C.2     
   9 N9            -2.2586     2.1666    -1.9432 N.2     
  10 Cl10           0.5941     0.7891    -2.5200 Cl      
  11 N11            1.2139    -0.6906    -0.0137 N.pl3   
  12 C12            1.2452    -2.1560     0.0884 C.3     
  13 C13            2.1690    -2.5495     1.2459 C.3     
  14 C14            3.5353    -1.8956     1.0487 C.3     
  15 C15            3.3987    -0.3746     1.0266 C.3     
  16 C16            2.4845     0.0367    -0.1386 C.3     
  17 C17           -4.6742     2.3195     0.7815 C.3     
  18 C18           -5.7838     1.3055     0.4960 C.3     
  19 F19           -5.2863     0.0092     0.6675 F       
  20 F20           -6.8477     1.5173     1.3794 F       
  21 F21           -6.2319     1.4627    -0.8199 F       
  22 C22            4.4762    -2.3175     2.1498 C.ar    
  23 C23            5.3038    -3.2994     1.6267 C.ar    
  24 C24            4.8954    -3.5107     0.1873 C.3     
  25 O25            4.1229    -2.3522    -0.1799 O.3     
  26 C26            4.6237    -1.9179     3.4621 C.ar    
  27 C27            5.5971    -2.4976     4.2550 C.ar    
  28 C28            6.4226    -3.4764     3.7331 C.ar    
  29 C29            6.2752    -3.8771     2.4178 C.ar    
  30 H30           -0.5168    -0.6099     2.0122 H       
  31 H31           -2.6210     0.5817     2.0382 H       
  32 H32           -4.1359     3.2203    -1.9146 H       
  33 H33            0.2396    -2.5306     0.2797 H       
  34 H34            1.6243    -2.5791    -0.8419 H       
  35 H35            1.7364    -2.2111     2.1874 H       
  36 H36            2.2841    -3.6332     1.2669 H       
  37 H37            2.9674    -0.0345     1.9681 H       
  38 H38            4.3817     0.0769     0.8926 H       
  39 H39            2.9638    -0.2133    -1.0851 H       
  40 H40            2.2960     1.1094    -0.0942 H       
  41 H41           -4.3251     2.1970     1.8068 H       
  42 H42           -5.0619     3.3294     0.6479 H       
  43 H43            5.7791    -3.5889    -0.4460 H       
  44 H44            4.2877    -4.4111     0.0977 H       
  45 H45            3.9796    -1.1528     3.8697 H       
  46 H46            5.7130    -2.1853     5.2823 H       
  47 H47            7.1830    -3.9280     4.3530 H       
  48 H48            6.9204    -4.6412     2.0100 H       
@<TRIPOS>BOND
   1    1    2 2
   2    1   10 1
   3    1    6 1
   4    2    3 1
   5    2   11 1
   6    3    4 2
   7    3   30 1
   8    4    5 1
   9    4   31 1
  10    5    6 1
  11    5    7 1
  12    6    9 2
  13    7    8 2
  14    7   17 1
  15    8    9 1
  16    8   32 1
  17   11   12 1
  18   11   16 1
  19   12   13 1
  20   12   33 1
  21   12   34 1
  22   13   14 1
  23   13   35 1
  24   13   36 1
  25   14   15 1
  26   14   22 1
  27   14   25 1
  28   15   16 1
  29   15   37 1
  30   15   38 1
  31   16   39 1
  32   16   40 1
  33   17   18 1
  34   17   41 1
  35   17   42 1
  36   18   19 1
  37   18   20 1
  38   18   21 1
  39   22   23 ar
  40   22   26 ar
  41   23   24 1
  42   23   29 ar
  43   24   25 1
  44   24   43 1
  45   24   44 1
  46   26   27 ar
  47   26   45 1
  48   27   28 ar
  49   27   46 1
  50   28   29 ar
  51   28   47 1
  52   29   48 1

#	End of record

