#	Name: ASD01917580
#	Creating user name:	WinNT
#	Creation time:	15. 06. 2019 20:09

#	Modifying user name:	WinNT
#	Modification time:	15. 06. 2019 20:09

#	Program:	/corina/corina34_cracker 3.40 0067  02.08.2006

@<TRIPOS>MOLECULE
ASD01917580
  22   23    0    0    0
SMALL
NO_CHARGES


@<TRIPOS>ATOM
   1 C1             1.0654    -0.4407     0.7537 C.ar    
   2 C2             0.0045    -0.0083    -0.0208 C.ar    
   3 C3             0.1289     1.1316    -0.7951 C.ar    
   4 C4             1.3150     1.8412    -0.7968 C.ar    
   5 C5             2.3817     1.4090    -0.0199 C.ar    
   6 C6             2.2529     0.2642     0.7566 C.ar    
   7 N7             3.5831     2.1242    -0.0195 N.am    
   8 C8             3.5671     3.4686    -0.1139 C.2     
   9 C9             4.8233     4.2286    -0.0104 C.2     
  10 O10            2.5145     4.0538    -0.2845 O.2     
  11 N11            4.9329     5.5278    -0.0861 N.2     
  12 C12            6.1439     6.0065     0.0311 C.2     
  13 C13            7.1157     5.0976     0.2140 C.2     
  14 S14            6.4217     3.5343     0.2431 S.3     
  15 Br15          -1.3248     1.7187    -1.8525 Br      
  16 Br16           6.5043     7.8609    -0.0523 Br      
  17 H17            0.9637    -1.3283     1.3605 H       
  18 H18           -0.9229    -0.5617    -0.0215 H       
  19 H19            1.4121     2.7305    -1.4018 H       
  20 H20            3.0807    -0.0741     1.3621 H       
  21 H21            4.4281     1.6528     0.0487 H       
  22 H22            8.1665     5.3187     0.3290 H       
@<TRIPOS>BOND
   1    1    2 ar
   2    1    6 ar
   3    1   17 1
   4    2    3 ar
   5    2   18 1
   6    3    4 ar
   7    3   15 1
   8    4    5 ar
   9    4   19 1
  10    5    6 ar
  11    5    7 1
  12    6   20 1
  13    7    8 am
  14    7   21 1
  15    8    9 1
  16    8   10 2
  17    9   11 2
  18    9   14 1
  19   11   12 1
  20   12   13 2
  21   12   16 1
  22   13   14 1
  23   13   22 1

#	End of record

