#	Name: ASD09740269
#	Creating user name:	WinNT
#	Creation time:	15. 06. 2019 21:23

#	Modifying user name:	WinNT
#	Modification time:	15. 06. 2019 21:23

#	Program:	/corina/corina34_cracker 3.40 0067  02.08.2006

@<TRIPOS>MOLECULE
ASD09740269
  41   44    0    0    0
SMALL
NO_CHARGES


@<TRIPOS>ATOM
   1 N1            -0.0144     1.2085     0.0087 N.2     
   2 O2             0.0021    -0.0041     0.0020 O.3     
   3 C3             1.2057     1.6798    -0.0004 C.2     
   4 N4             2.0455     0.6239    -0.0141 N.2     
   5 C5             1.2699    -0.4439    -0.0125 C.2     
   6 C6             1.7129    -1.8543    -0.0243 C.ar    
   7 C7             1.5950     3.1130     0.0031 C.ar    
   8 C8             0.7714    -2.8846    -0.0208 C.ar    
   9 C9             1.1914    -4.1987    -0.0323 C.ar    
  10 C10            2.5425    -4.4962    -0.0469 C.ar    
  11 C11            3.4810    -3.4795    -0.0499 C.ar    
  12 C12            3.0742    -2.1612    -0.0447 C.ar    
  13 C13            0.6263     4.1194     0.0178 C.ar    
  14 C14            1.0315     5.4391     0.0211 C.ar    
  15 N15            2.3122     5.7539     0.0101 N.ar    
  16 C16            3.2577     4.8345    -0.0039 C.ar    
  17 C17            2.9397     3.4912    -0.0023 C.ar    
  18 C18            2.9941    -5.9339    -0.0589 C.3     
  19 N19            4.1440    -6.0780    -0.9607 N.3     
  20 C20            4.5899    -7.4753    -1.0334 C.3     
  21 C21            5.0417    -7.9407     0.3527 C.3     
  22 C22            3.8751    -7.8082     1.3356 C.3     
  23 C23            3.3982    -6.3533     1.3563 C.3     
  24 H24           -0.2836    -2.6537    -0.0088 H       
  25 H25            0.4639    -4.9969    -0.0297 H       
  26 H26            4.5342    -3.7184    -0.0605 H       
  27 H27            3.8077    -1.3685    -0.0475 H       
  28 H28           -0.4242     3.8688     0.0261 H       
  29 H29            0.2899     6.2241     0.0324 H       
  30 H30            4.2945     5.1367    -0.0129 H       
  31 H31            3.7191     2.7436    -0.0134 H       
  32 H32            2.1783    -6.5678    -0.4064 H       
  33 H33            3.9307    -5.7183    -1.8790 H       
  34 H34            3.7666    -8.1019    -1.3764 H       
  35 H35            5.4224    -7.5549    -1.7325 H       
  36 H36            5.3579    -8.9826     0.3016 H       
  37 H37            5.8741    -7.3233     0.6905 H       
  38 H38            3.0570    -8.4552     1.0192 H       
  39 H39            4.2048    -8.0977     2.3334 H       
  40 H40            4.2047    -5.7109     1.7099 H       
  41 H41            2.5402    -6.2610     2.0222 H       
@<TRIPOS>BOND
   1    1    2 1
   2    1    3 2
   3    2    5 1
   4    3    4 1
   5    3    7 1
   6    4    5 2
   7    5    6 1
   8    6    8 ar
   9    6   12 ar
  10    7   13 ar
  11    7   17 ar
  12    8    9 ar
  13    8   24 1
  14    9   10 ar
  15    9   25 1
  16   10   11 ar
  17   10   18 1
  18   11   12 ar
  19   11   26 1
  20   12   27 1
  21   13   14 ar
  22   13   28 1
  23   14   15 ar
  24   14   29 1
  25   15   16 ar
  26   16   17 ar
  27   16   30 1
  28   17   31 1
  29   18   19 1
  30   18   23 1
  31   18   32 1
  32   19   20 1
  33   19   33 1
  34   20   21 1
  35   20   34 1
  36   20   35 1
  37   21   22 1
  38   21   36 1
  39   21   37 1
  40   22   23 1
  41   22   38 1
  42   22   39 1
  43   23   40 1
  44   23   41 1

#	End of record

