#	Name: ASD01411604
#	Creating user name:	WinNT
#	Creation time:	15. 06. 2019 19:19

#	Modifying user name:	WinNT
#	Modification time:	15. 06. 2019 19:19

#	Program:	/corina/corina34_cracker 3.40 0067  02.08.2006

@<TRIPOS>MOLECULE
ASD01411604
  46   49    0    0    0
SMALL
NO_CHARGES


@<TRIPOS>ATOM
   1 N1            -0.0164     1.3588     0.0095 N.am    
   2 C2             0.0021    -0.0041     0.0020 C.2     
   3 N3             1.1271    -0.6834    -0.0124 N.2     
   4 C4             2.3113    -0.0603    -0.0203 C.2     
   5 C5             2.3589     1.3384    -0.0132 C.2     
   6 C6             1.1406     2.0571     0.0022 C.2     
   7 C7             4.4057     0.6263    -0.0372 C.2     
   8 N8             3.6660     1.6965    -0.0242 N.2     
   9 O9             1.1346     3.2763     0.0084 O.2     
  10 N10           -1.1884    -0.6866     0.0102 N.pl3   
  11 N11            3.6125    -0.4843    -0.0354 N.pl3   
  12 C12            5.5913    -2.7911    -1.7230 C.3     
  13 C13            4.0995    -2.4062    -1.4950 C.3     
  14 C14            4.0702    -1.8759    -0.0470 C.3     
  15 O15            5.4153    -1.9537     0.4660 O.3     
  16 C16            6.0627    -2.9974    -0.2727 C.3     
  17 C17            7.5606    -3.0166    -0.0958 C.3     
  18 O18            6.2121    -1.6237    -2.2912 O.3     
  19 O19            8.1625    -1.8178    -0.6117 O.3     
  20 F20            3.2775    -3.5310    -1.6225 F       
  21 C21            3.6703    -1.3153    -2.4782 C.3     
  22 P22            7.8058    -1.3737    -2.1347 P.3     
  23 O23            8.6188    -2.2828    -3.1857 O.3     
  24 O24            8.1262     0.0566    -2.3401 O.2     
  25 C25           10.0436    -2.2619    -3.2939 C.3     
  26 C26           10.5973    -3.6594    -3.0088 C.3     
  27 C27           10.4415    -1.8344    -4.7080 C.3     
  28 H28           -0.8643     1.8299     0.0161 H       
  29 H29            5.4856     0.6181    -0.0483 H       
  30 H30           -2.0269    -0.1991     0.0211 H       
  31 H31           -1.1913    -1.6566     0.0050 H       
  32 H32            5.7120    -3.6761    -2.3476 H       
  33 H33            3.4041    -2.4900     0.5591 H       
  34 H34            5.6745    -3.9534     0.0786 H       
  35 H35            7.7936    -3.1049     0.9653 H       
  36 H36            7.9712    -3.8776    -0.6232 H       
  37 H37            3.7899    -1.6786    -3.4989 H       
  38 H38            2.6252    -1.0596    -2.3036 H       
  39 H39            4.2901    -0.4306    -2.3324 H       
  40 H40           10.4525    -1.5549    -2.5720 H       
  41 H41           10.1884    -4.3664    -3.7307 H       
  42 H42           11.6840    -3.6435    -3.0913 H       
  43 H43           10.3138    -3.9640    -2.0013 H       
  44 H44           11.5282    -1.8184    -4.7905 H       
  45 H45           10.0326    -2.5414    -5.4299 H       
  46 H46           10.0470    -0.8387    -4.9111 H       
@<TRIPOS>BOND
   1    1    2 1
   2    1    6 am
   3    1   28 1
   4    2    3 2
   5    2   10 1
   6    3    4 1
   7    4    5 2
   8    4   11 1
   9    5    6 1
  10    5    8 1
  11    6    9 2
  12    7    8 2
  13    7   11 1
  14    7   29 1
  15   10   30 1
  16   10   31 1
  17   11   14 1
  18   12   13 1
  19   12   18 1
  20   12   16 1
  21   12   32 1
  22   13   20 1
  23   13   21 1
  24   13   14 1
  25   14   15 1
  26   14   33 1
  27   15   16 1
  28   16   17 1
  29   16   34 1
  30   17   19 1
  31   17   35 1
  32   17   36 1
  33   18   22 1
  34   19   22 1
  35   21   37 1
  36   21   38 1
  37   21   39 1
  38   22   23 1
  39   22   24 2
  40   23   25 1
  41   25   26 1
  42   25   27 1
  43   25   40 1
  44   26   41 1
  45   26   42 1
  46   26   43 1
  47   27   44 1
  48   27   45 1
  49   27   46 1

#	End of record

