#	Name: ASD08830180
#	Creating user name:	WinNT
#	Creation time:	15. 06. 2019 21:19

#	Modifying user name:	WinNT
#	Modification time:	15. 06. 2019 21:19

#	Program:	/corina/corina34_cracker 3.40 0067  02.08.2006

@<TRIPOS>MOLECULE
ASD08830180
  44   47    0    0    0
SMALL
NO_CHARGES


@<TRIPOS>ATOM
   1 C1            -0.0179     1.4655     0.0101 C.ar    
   2 C2             0.0021    -0.0041     0.0020 C.2     
   3 C3            -1.2926    -0.7753     0.0102 C.3     
   4 C4            -0.9927    -2.2755    -0.0007 C.3     
   5 N5            -2.2547    -3.0273     0.0073 N.3     
   6 O6             1.0605    -0.5961    -0.0113 O.2     
   7 C7            -1.2548     2.1411     0.0314 C.ar    
   8 C8            -2.0181    -4.4568    -0.2410 C.3     
   9 C9            -3.3490    -5.2097    -0.1649 C.3     
  10 O10           -4.2665    -4.6418    -1.1035 O.3     
  11 C11           -4.5205    -3.2506    -0.8906 C.3     
  12 C12           -3.2015    -2.4779    -0.9741 C.3     
  13 C13            1.1807     2.1631     0.0024 C.ar    
  14 C14            1.1582     3.5670     0.0107 C.ar    
  15 C15           -0.1360     4.2568     0.0272 C.ar    
  16 C16           -1.3228     3.4934     0.0400 C.ar    
  17 C17            2.3400     4.3175     0.0039 C.ar    
  18 C18            2.2737     5.6978     0.0129 C.ar    
  19 C19            1.0256     6.3638     0.0288 C.ar    
  20 C20           -0.1676     5.6513     0.0354 C.ar    
  21 N21            3.2424     6.6769     0.0104 N.pl3   
  22 N22            2.6276     7.9318     0.0243 N.2     
  23 C23            1.3298     7.7998     0.0354 C.2     
  24 N24            0.3963     8.8395     0.0508 N.pl3   
  25 H25           -1.8592    -0.5245     0.9070 H       
  26 H26           -1.8762    -0.5150    -0.8728 H       
  27 H27           -0.4261    -2.5263    -0.8975 H       
  28 H28           -0.4091    -2.5358     0.8824 H       
  29 H29           -2.1695     1.5669     0.0407 H       
  30 H30           -1.5824    -4.5869    -1.2316 H       
  31 H31           -1.3346    -4.8488     0.5123 H       
  32 H32           -3.1869    -6.2606    -0.4046 H       
  33 H33           -3.7584    -5.1242     0.8417 H       
  34 H34           -5.2057    -2.8846    -1.6552 H       
  35 H35           -4.9640    -3.1082     0.0948 H       
  36 H36           -3.3819    -1.4252    -0.7560 H       
  37 H37           -2.7847    -2.5763    -1.9764 H       
  38 H38            2.1212     1.6323    -0.0094 H       
  39 H39           -2.2834     3.9868     0.0522 H       
  40 H40            3.2986     3.8202    -0.0079 H       
  41 H41           -1.1128     6.1737     0.0472 H       
  42 H42            4.1996     6.5202     0.0010 H       
  43 H43            0.6973     9.7616     0.0544 H       
  44 H44           -0.5528     8.6391     0.0579 H       
@<TRIPOS>BOND
   1    1    2 1
   2    1   13 ar
   3    1    7 ar
   4    2    3 1
   5    2    6 2
   6    3    4 1
   7    3   25 1
   8    3   26 1
   9    4    5 1
  10    4   27 1
  11    4   28 1
  12    5    8 1
  13    5   12 1
  14    7   16 ar
  15    7   29 1
  16    8    9 1
  17    8   30 1
  18    8   31 1
  19    9   10 1
  20    9   32 1
  21    9   33 1
  22   10   11 1
  23   11   12 1
  24   11   34 1
  25   11   35 1
  26   12   36 1
  27   12   37 1
  28   13   14 ar
  29   13   38 1
  30   14   15 ar
  31   14   17 ar
  32   15   16 ar
  33   15   20 ar
  34   16   39 1
  35   17   18 ar
  36   17   40 1
  37   18   19 ar
  38   18   21 1
  39   19   20 ar
  40   19   23 1
  41   20   41 1
  42   21   22 1
  43   21   42 1
  44   22   23 2
  45   23   24 1
  46   24   43 1
  47   24   44 1

#	End of record

