#	Name: ASD02360003
#	Creating user name:	WinNT
#	Creation time:	15. 06. 2019 20:20

#	Modifying user name:	WinNT
#	Modification time:	15. 06. 2019 20:20

#	Program:	/corina/corina34_cracker 3.40 0067  02.08.2006

@<TRIPOS>MOLECULE
ASD02360003
  33   34    0    0    0
SMALL
NO_CHARGES


@<TRIPOS>ATOM
   1 C1            -0.0167     1.3789     0.0096 C.ar    
   2 C2             0.0021    -0.0041     0.0020 C.ar    
   3 C3            -1.1869    -0.7115     0.0095 C.ar    
   4 C4            -2.3937    -0.0354     0.0246 C.ar    
   5 C5            -2.4118     1.3469     0.0318 C.ar    
   6 C6            -1.2244     2.0541     0.0305 C.ar    
   7 C7            -3.6888    -0.8058     0.0328 C.3     
   8 O8            -4.7169    -0.0030     0.6163 O.3     
   9 C9            -4.0765    -1.1669    -1.4025 C.3     
  10 N10           -5.2698    -2.0166    -1.3870 N.pl3   
  11 C11           -5.7315    -0.7543     1.2859 C.3     
  12 C12           -6.7580     0.1879     1.8599 C.2     
  13 C13           -8.0347    -0.0687     1.7176 C.2     
  14 Cl14          -1.1643    -2.4473    -0.0006 Cl      
  15 Cl15           1.4747     2.2674     0.0002 Cl      
  16 C16           -6.5528    -1.5972    -1.4312 C.2     
  17 N17           -7.3354    -2.6409    -1.3988 N.2     
  18 C18           -6.5878    -3.7526    -1.3334 C.2     
  19 C19           -5.2926    -3.3840    -1.3310 C.2     
  20 H20            0.9445    -0.5315    -0.0101 H       
  21 H21           -3.3542     1.8743     0.0428 H       
  22 H22           -1.2392     3.1340     0.0365 H       
  23 H23           -3.5651    -1.7182     0.6162 H       
  24 H24           -4.2867    -0.2555    -1.9623 H       
  25 H25           -3.2547    -1.7033    -1.8769 H       
  26 H26           -6.2127    -1.4276     0.5765 H       
  27 H27           -5.2816    -1.3356     2.0907 H       
  28 H28           -6.4411     1.0747     2.3886 H       
  29 H29           -8.7703     0.6065     2.1290 H       
  30 H30           -8.3516    -0.9555     1.1889 H       
  31 H31           -6.8773    -0.5685    -1.4839 H       
  32 H32           -6.9594    -4.7659    -1.2939 H       
  33 H33           -4.4364    -4.0409    -1.2863 H       
@<TRIPOS>BOND
   1    1    2 ar
   2    1   15 1
   3    1    6 ar
   4    2    3 ar
   5    2   20 1
   6    3    4 ar
   7    3   14 1
   8    4    5 ar
   9    4    7 1
  10    5    6 ar
  11    5   21 1
  12    6   22 1
  13    7    8 1
  14    7    9 1
  15    7   23 1
  16    8   11 1
  17    9   10 1
  18    9   24 1
  19    9   25 1
  20   10   16 1
  21   10   19 1
  22   11   12 1
  23   11   26 1
  24   11   27 1
  25   12   13 2
  26   12   28 1
  27   13   29 1
  28   13   30 1
  29   16   17 2
  30   16   31 1
  31   17   18 1
  32   18   19 2
  33   18   32 1
  34   19   33 1

#	End of record

