#	Name: ASD01914844
#	Creating user name:	WinNT
#	Creation time:	15. 06. 2019 20:04

#	Modifying user name:	WinNT
#	Modification time:	15. 06. 2019 20:04

#	Program:	/corina/corina34_cracker 3.40 0067  02.08.2006

@<TRIPOS>MOLECULE
ASD01914844
  29   31    0    0    0
SMALL
NO_CHARGES


@<TRIPOS>ATOM
   1 C1            -0.0168     1.3895     0.0097 C.ar    
   2 C2             0.0021    -0.0041     0.0020 C.ar    
   3 C3             1.2343    -0.6631    -0.0133 C.ar    
   4 C4             2.3881     0.1020    -0.0202 C.ar    
   5 C5             2.2854     1.4809    -0.0118 C.ar    
   6 N6             1.1078     2.0752     0.0026 N.ar    
   7 N7            -2.7962    -2.3174    -0.3491 N.pl3   
   8 N8            -1.4778    -1.9197    -0.6045 N.2     
   9 C9            -1.2651    -0.7751     0.0104 C.2     
  10 C10           -2.4536    -0.4100     0.6801 C.2     
  11 C11           -3.3760    -1.3748     0.4418 C.2     
  12 S12           -2.6945     1.0398     1.6520 S.3     
  13 C13           -4.4153     0.8801     2.2034 C.3     
  14 O14           -4.6359     2.1435     4.3936 O.3     
  15 C15           -4.7801     2.0646     3.0607 C.2     
  16 C16           -5.3049     3.2223     2.6206 C.2     
  17 C17           -5.4874     4.0466     3.7548 C.2     
  18 C18           -5.0632     3.3432     4.8200 C.2     
  19 H19           -0.9621     1.9118     0.0170 H       
  20 H20            1.2852    -1.7419    -0.0192 H       
  21 H21            3.3580    -0.3730    -0.0316 H       
  22 H22            3.1835     2.0808    -0.0171 H       
  23 H23           -3.2228    -3.1225    -0.6817 H       
  24 H24           -4.3898    -1.3919     0.8136 H       
  25 H25           -5.0732     0.8438     1.3350 H       
  26 H26           -4.5277    -0.0362     2.7829 H       
  27 H27           -5.5410     3.4741     1.5973 H       
  28 H28           -5.8899     5.0487     3.7640 H       
  29 H29           -5.0658     3.6852     5.8444 H       
@<TRIPOS>BOND
   1    1    2 ar
   2    1    6 ar
   3    1   19 1
   4    2    3 ar
   5    2    9 1
   6    3    4 ar
   7    3   20 1
   8    4    5 ar
   9    4   21 1
  10    5    6 ar
  11    5   22 1
  12    7    8 1
  13    7   11 1
  14    7   23 1
  15    8    9 2
  16    9   10 1
  17   10   11 2
  18   10   12 1
  19   11   24 1
  20   12   13 1
  21   13   15 1
  22   13   25 1
  23   13   26 1
  24   14   15 1
  25   14   18 1
  26   15   16 2
  27   16   17 1
  28   16   27 1
  29   17   18 2
  30   17   28 1
  31   18   29 1

#	End of record

