#	Name: ASD01150931
#	Creating user name:	WinNT
#	Creation time:	15. 06. 2019 19:05

#	Modifying user name:	WinNT
#	Modification time:	15. 06. 2019 19:05

#	Program:	/corina/corina34_cracker 3.40 0067  02.08.2006

@<TRIPOS>MOLECULE
ASD01150931
  47   49    0    0    0
SMALL
NO_CHARGES


@<TRIPOS>ATOM
   1 C1            -0.0218     1.7577     0.0117 C.ar    
   2 S2             0.0021    -0.0041     0.0020 S.o2    
   3 N3             0.0238    -0.5027     1.5810 N.am    
   4 C4            -1.0600    -0.2425     2.4049 C.2     
   5 N5            -2.1790     0.3970     2.0549 N.2     
   6 C6            -2.9997     0.4693     3.0828 C.2     
   7 N7            -2.4279    -0.1348     4.1598 N.pl3   
   8 C8            -1.1787    -0.6060     3.7423 C.2     
   9 C9            -0.2317    -1.2982     4.5192 C.2     
  10 O10           -0.4918    -1.5708     5.8164 O.3     
  11 O11            0.8227    -1.6516     4.0221 O.2     
  12 C12            0.5145    -2.2767     6.5453 C.3     
  13 C13            0.0444    -2.4923     7.9853 C.3     
  14 S14           -4.5891     1.2298     3.0660 S.3     
  15 C15           -4.6512     1.7901     1.3461 C.3     
  16 C16           -2.9852    -0.2649     5.4382 C.ar    
  17 O17           -1.2472    -0.4194    -0.5328 O.2     
  18 O18            1.2519    -0.3853    -0.5564 O.2     
  19 C19            1.1658     2.4651     0.0042 C.ar    
  20 C20            1.1471     3.8473     0.0118 C.ar    
  21 C21           -0.0593     4.5221     0.0265 C.ar    
  22 C22           -1.2469     3.8148     0.0332 C.ar    
  23 C23           -1.2282     2.4326     0.0211 C.ar    
  24 C24           -4.1277    -1.0318     5.6243 C.ar    
  25 C25           -4.6746    -1.1586     6.8862 C.ar    
  26 C26           -4.0855    -0.5227     7.9637 C.ar    
  27 C27           -2.9476     0.2417     7.7816 C.ar    
  28 C28           -2.3930     0.3680     6.5230 C.ar    
  29 H29            0.7950    -0.9769     1.9293 H       
  30 H30            0.6947    -3.2426     6.0735 H       
  31 H31            1.4366    -1.6956     6.5473 H       
  32 H32           -0.1358    -1.5264     8.4571 H       
  33 H33           -0.8778    -3.0734     7.9833 H       
  34 H34            0.8119    -3.0307     8.5412 H       
  35 H35           -4.5642     0.9311     0.6808 H       
  36 H36           -5.5988     2.2969     1.1631 H       
  37 H37           -3.8282     2.4798     1.1586 H       
  38 H38            2.1083     1.9379    -0.0073 H       
  39 H39            2.0749     4.4000     0.0066 H       
  40 H40           -0.0740     5.6020     0.0332 H       
  41 H41           -2.1894     4.3420     0.0450 H       
  42 H42           -2.1561     1.8799     0.0263 H       
  43 H43           -4.5885    -1.5283     4.7831 H       
  44 H44           -5.5634    -1.7546     7.0316 H       
  45 H45           -4.5152    -0.6231     8.9494 H       
  46 H46           -2.4901     0.7373     8.6250 H       
  47 H47           -1.5043     0.9652     6.3814 H       
@<TRIPOS>BOND
   1    1    2 1
   2    1   19 ar
   3    1   23 ar
   4    2    3 am
   5    2   17 2
   6    2   18 2
   7    3    4 1
   8    3   29 1
   9    4    5 1
  10    4    8 2
  11    5    6 2
  12    6    7 1
  13    6   14 1
  14    7    8 1
  15    7   16 1
  16    8    9 1
  17    9   10 1
  18    9   11 2
  19   10   12 1
  20   12   13 1
  21   12   30 1
  22   12   31 1
  23   13   32 1
  24   13   33 1
  25   13   34 1
  26   14   15 1
  27   15   35 1
  28   15   36 1
  29   15   37 1
  30   16   24 ar
  31   16   28 ar
  32   19   20 ar
  33   19   38 1
  34   20   21 ar
  35   20   39 1
  36   21   22 ar
  37   21   40 1
  38   22   23 ar
  39   22   41 1
  40   23   42 1
  41   24   25 ar
  42   24   43 1
  43   25   26 ar
  44   25   44 1
  45   26   27 ar
  46   26   45 1
  47   27   28 ar
  48   27   46 1
  49   28   47 1

#	End of record

