#	Name: ASD00431135
#	Creating user name:	WinNT
#	Creation time:	15. 06. 2019 18:35

#	Modifying user name:	WinNT
#	Modification time:	15. 06. 2019 18:35

#	Program:	/corina/corina34_cracker 3.40 0067  02.08.2006

@<TRIPOS>MOLECULE
ASD00431135
  48   50    0    0    0
SMALL
NO_CHARGES


@<TRIPOS>ATOM
   1 C1             0.0222     1.7037    -0.0292 C.2     
   2 C2             0.0831     0.1994     0.0373 C.3     
   3 O3             1.0469     2.3503    -0.0816 O.2     
   4 N4            -1.1711     2.3302    -0.0359 N.am    
   5 C5            -1.2303     3.7926    -0.1006 C.3     
   6 C6            -1.1510     4.2421    -1.5609 C.3     
   7 C7            -2.5262     4.2700     0.5024 C.2     
   8 C8            -2.6602     5.3469     1.2827 C.2     
   9 C9            -3.9433     5.5944     1.7223 C.2     
  10 C10           -4.8669     4.7067     1.2940 C.2     
  11 S11           -4.0905     3.4982     0.2789 S.3     
  12 S12           -7.5260     3.6008     1.0741 S.3     
  13 C13           -6.3014     4.7478     1.6209 C.2     
  14 N14           -6.8950     5.6390     2.3675 N.2     
  15 N15           -8.1381     5.5201     2.5432 N.2     
  16 C16           -8.7388     4.5190     1.9685 C.2     
  17 O17          -10.0614     4.2322     2.0439 O.3     
  18 C18          -10.8249     4.9617     2.9003 C.ar    
  19 C19          -10.2248     5.8549     3.7759 C.ar    
  20 C20          -11.0005     6.5958     4.6458 C.ar    
  21 C21          -12.3796     6.4466     4.6444 C.ar    
  22 C22          -12.9797     5.5536     3.7689 C.ar    
  23 C23          -12.2047     4.8170     2.8946 C.ar    
  24 O24          -13.1431     7.1755     5.5015 O.3     
  25 C25          -14.5609     7.0476     5.3764 C.3     
  26 C26          -15.2243     7.4004     6.7092 C.3     
  27 C27          -15.0647     7.9982     4.2886 C.3     
  28 H28            1.1243    -0.1229     0.0282 H       
  29 H29           -0.3953    -0.1434     0.9548 H       
  30 H30           -0.4358    -0.2236    -0.8229 H       
  31 H31           -1.9907     1.8128     0.0020 H       
  32 H32           -0.3934     4.2150     0.4556 H       
  33 H33           -1.1950     5.3302    -1.6090 H       
  34 H34           -0.2136     3.8968    -1.9970 H       
  35 H35           -1.9879     3.8197    -2.1170 H       
  36 H36           -1.8246     5.9769     1.5495 H       
  37 H37           -4.1902     6.4313     2.3588 H       
  38 H38           -9.1510     5.9705     3.7775 H       
  39 H39          -10.5333     7.2911     5.3275 H       
  40 H40          -14.0535     5.4375     3.7679 H       
  41 H41          -12.6724     4.1253     2.2097 H       
  42 H42          -14.8107     6.0215     5.1066 H       
  43 H43          -14.9744     8.4265     6.9791 H       
  44 H44          -16.3057     7.3028     6.6138 H       
  45 H45          -14.8654     6.7232     7.4843 H       
  46 H46          -16.1461     7.9006     4.1932 H       
  47 H47          -14.8148     9.0242     4.5584 H       
  48 H48          -14.5921     7.7468     3.3391 H       
@<TRIPOS>BOND
   1    1    2 1
   2    1    3 2
   3    1    4 am
   4    2   28 1
   5    2   29 1
   6    2   30 1
   7    4    5 1
   8    4   31 1
   9    5    6 1
  10    5    7 1
  11    5   32 1
  12    6   33 1
  13    6   34 1
  14    6   35 1
  15    7    8 2
  16    7   11 1
  17    8    9 1
  18    8   36 1
  19    9   10 2
  20    9   37 1
  21   10   11 1
  22   10   13 1
  23   12   13 1
  24   12   16 1
  25   13   14 2
  26   14   15 1
  27   15   16 2
  28   16   17 1
  29   17   18 1
  30   18   19 ar
  31   18   23 ar
  32   19   20 ar
  33   19   38 1
  34   20   21 ar
  35   20   39 1
  36   21   22 ar
  37   21   24 1
  38   22   23 ar
  39   22   40 1
  40   23   41 1
  41   24   25 1
  42   25   26 1
  43   25   27 1
  44   25   42 1
  45   26   43 1
  46   26   44 1
  47   26   45 1
  48   27   46 1
  49   27   47 1
  50   27   48 1

#	End of record

