#	Name: ASD05720173
#	Creating user name:	WinNT
#	Creation time:	15. 06. 2019 21:02

#	Modifying user name:	WinNT
#	Modification time:	15. 06. 2019 21:02

#	Program:	/corina/corina34_cracker 3.40 0067  02.08.2006

@<TRIPOS>MOLECULE
ASD05720173
  53   58    0    0    0
SMALL
NO_CHARGES


@<TRIPOS>ATOM
   1 O1            -0.0161     1.3334     0.0094 O.3     
   2 C2             0.0021    -0.0041     0.0020 C.2     
   3 N3             1.2348    -0.5293    -0.0126 N.am    
   4 C4             2.2183     0.5645    -0.0161 C.3     
   5 C5             1.3508     1.8379    -0.0010 C.3     
   6 O6            -1.0069    -0.6808     0.0084 O.2     
   7 C7             3.0621     0.5136    -1.2636 C.ar    
   8 C8             4.3335     1.0693    -1.2650 C.ar    
   9 C9             5.1078     1.0208    -2.4149 C.ar    
  10 C10            4.6115     0.4197    -3.5557 C.ar    
  11 C11            3.3443    -0.1328    -3.5519 C.ar    
  12 C12            2.5728    -0.0912    -2.4049 C.ar    
  13 O13            4.8193     1.6603    -0.1418 O.3     
  14 C14            6.1357     2.2112    -0.2160 C.3     
  15 C15            3.0997    -3.5830    -0.0446 C.2     
  16 N16            2.7934    -2.2820    -0.0358 N.2     
  17 C17            1.5348    -1.8852    -0.0220 C.2     
  18 C18            0.4948    -2.8369    -0.0165 C.2     
  19 C19            0.8012    -4.1542    -0.0253 C.2     
  20 N20            2.1144    -4.5345    -0.0395 N.pl3   
  21 N21            2.7294    -5.7914    -0.0515 N.2     
  22 C22            4.0306    -5.6364    -0.0634 C.2     
  23 C23            4.3226    -4.2670    -0.0650 C.2     
  24 C24            5.6706    -3.6561    -0.0831 C.ar    
  25 C25            6.6407    -4.0788     0.8272 C.ar    
  26 C26            7.8966    -3.5089     0.8095 C.ar    
  27 C27            8.1963    -2.5093    -0.1195 C.ar    
  28 C28            7.2260    -2.0883    -1.0281 C.ar    
  29 C29            5.9737    -2.6612    -1.0144 C.ar    
  30 N30           11.2830    -0.6691    -0.6320 N.pl3   
  31 N31            9.9472    -0.9508    -0.9614 N.2     
  32 C32            9.5460    -1.8958    -0.1389 C.2     
  33 N33           10.5598    -2.2120     0.6787 N.2     
  34 C34           11.6046    -1.4818     0.3903 C.2     
  35 F35            8.8363    -3.9168     1.6903 F       
  36 H36            2.8457     0.5180     0.8740 H       
  37 H37            1.5314     2.4339    -0.8956 H       
  38 H38            1.5485     2.4243     0.8964 H       
  39 H39            6.0976     1.4529    -2.4186 H       
  40 H40            5.2139     0.3818    -4.4513 H       
  41 H41            2.9578    -0.6015    -4.4448 H       
  42 H42            1.5850    -0.5278    -2.4030 H       
  43 H43            6.8463     1.4222    -0.4625 H       
  44 H44            6.1648     2.9804    -0.9878 H       
  45 H45            6.4003     2.6510     0.7455 H       
  46 H46           -0.5367    -2.5172    -0.0049 H       
  47 H47            0.0174    -4.8972    -0.0209 H       
  48 H48            4.7584    -6.4342    -0.0738 H       
  49 H49            6.4080    -4.8513     1.5451 H       
  50 H50            7.4581    -1.3156    -1.7461 H       
  51 H51            5.2243    -2.3375    -1.7215 H       
  52 H52           11.8615    -0.0190    -1.0605 H       
  53 H53           12.5623    -1.5238     0.8878 H       
@<TRIPOS>BOND
   1    1    2 1
   2    1    5 1
   3    2    3 am
   4    2    6 2
   5    3    4 1
   6    3   17 1
   7    4    5 1
   8    4    7 1
   9    4   36 1
  10    5   37 1
  11    5   38 1
  12    7    8 ar
  13    7   12 ar
  14    8    9 ar
  15    8   13 1
  16    9   10 ar
  17    9   39 1
  18   10   11 ar
  19   10   40 1
  20   11   12 ar
  21   11   41 1
  22   12   42 1
  23   13   14 1
  24   14   43 1
  25   14   44 1
  26   14   45 1
  27   15   16 1
  28   15   20 1
  29   15   23 2
  30   16   17 2
  31   17   18 1
  32   18   19 2
  33   18   46 1
  34   19   20 1
  35   19   47 1
  36   20   21 1
  37   21   22 2
  38   22   23 1
  39   22   48 1
  40   23   24 1
  41   24   25 ar
  42   24   29 ar
  43   25   26 ar
  44   25   49 1
  45   26   27 ar
  46   26   35 1
  47   27   28 ar
  48   27   32 1
  49   28   29 ar
  50   28   50 1
  51   29   51 1
  52   30   31 1
  53   30   34 1
  54   30   52 1
  55   31   32 2
  56   32   33 1
  57   33   34 2
  58   34   53 1

#	End of record

