#	Name: ASD01820089
#	Creating user name:	WinNT
#	Creation time:	15. 06. 2019 19:36

#	Modifying user name:	WinNT
#	Modification time:	15. 06. 2019 19:36

#	Program:	/corina/corina34_cracker 3.40 0067  02.08.2006

@<TRIPOS>MOLECULE
ASD01820089
  69   73    0    0    0
SMALL
NO_CHARGES


@<TRIPOS>ATOM
   1 C1            -0.5876     0.5582     0.6862 C.ar    
   2 C2            -0.7297    -0.8209     0.5166 C.ar    
   3 C3             0.3900    -1.6440     0.6019 C.ar    
   4 C4             1.6350    -1.1053     0.8532 C.ar    
   5 C5             1.7905     0.2614     1.0245 C.ar    
   6 C6             0.6866     1.1011     0.9426 C.ar    
   7 C7            -1.7581     1.4518     0.5933 C.2     
   8 C8             0.8366     2.5619     1.1206 C.2     
   9 C9            -0.2715     3.4508     0.7262 C.ar    
  10 C10           -1.5453     2.9058     0.4661 C.ar    
  11 C11           -2.5862     3.7503     0.0921 C.ar    
  12 C12           -0.0765     4.8234     0.5997 C.ar    
  13 C13           -1.1363     5.6598     0.2218 C.ar    
  14 C14           -2.3730     5.1308    -0.0288 C.ar    
  15 C15           -3.5522     5.9808    -0.4275 C.3     
  16 C16           -0.8424     7.1321     0.0896 C.3     
  17 C17           -2.1356     7.9439     0.1062 C.3     
  18 C18           -3.0861     7.3419    -0.9393 C.3     
  19 O19           -1.9515    -1.3553     0.2706 O.3     
  20 C20           -2.0186    -2.7735     0.1084 C.3     
  21 O21           -2.8849     0.9949     0.6209 O.2     
  22 O22            1.8604     3.0235     1.5866 O.2     
  23 O23           -3.8153     3.2343    -0.1577 O.3     
  24 O24            1.1468     5.3551     0.8442 O.3     
  25 O25           -2.7253     7.8835     1.4064 O.3     
  26 C26           -1.8397     9.3775    -0.2519 C.2     
  27 N27           -2.3140     9.8788    -1.3294 N.2     
  28 C28           -0.9853    10.2208     0.6591 C.3     
  29 O29           -2.0360    11.2259    -1.6658 O.3     
  30 O30           -4.4014     6.1695     0.7062 O.3     
  31 C31           -5.7759     6.3771     0.3747 C.3     
  32 C32           -7.7131     5.2571    -0.4881 C.3     
  33 O33           -6.3410     5.1543    -0.1022 O.3     
  34 C34           -6.5374     6.8381     1.6201 C.3     
  35 C35           -8.0202     7.0004     1.2714 C.3     
  36 C36           -8.5525     5.6731     0.7226 C.3     
  37 C37           -8.2005     3.9023    -1.0057 C.3     
  38 O38           -8.4627     4.6677     1.7342 O.3     
  39 N39           -8.7713     7.3697     2.4787 N.3     
  40 H40            0.2832    -2.7107     0.4709 H       
  41 H41            2.4959    -1.7542     0.9174 H       
  42 H42            2.7693     0.6733     1.2214 H       
  43 H43           -4.1112     5.4735    -1.2138 H       
  44 H44           -0.2096     7.4478     0.9190 H       
  45 H45           -0.3183     7.3107    -0.8493 H       
  46 H46           -2.5680     7.2190    -1.8904 H       
  47 H47           -3.9458     7.9989    -1.0710 H       
  48 H48           -1.3933    -3.0730    -0.7326 H       
  49 H49           -1.6635    -3.2603     1.0167 H       
  50 H50           -3.0503    -3.0689    -0.0826 H       
  51 H51           -4.3733     3.1498     0.6275 H       
  52 H52            1.7188     5.4003     0.0658 H       
  53 H53           -2.1622     8.2333     2.1104 H       
  54 H54            0.0609    10.1234     0.3690 H       
  55 H55           -1.2889    11.2645     0.5788 H       
  56 H56           -1.1098     9.8843     1.6883 H       
  57 H57           -2.4371    11.5144    -2.4971 H       
  58 H58           -5.8516     7.1395    -0.4007 H       
  59 H59           -7.8144     6.0047    -1.2748 H       
  60 H60           -6.4282     6.0948     2.4098 H       
  61 H61           -6.1364     7.7931     1.9596 H       
  62 H62           -8.1342     7.7789     0.5171 H       
  63 H63           -9.5926     5.7950     0.4203 H       
  64 H64           -8.0002     3.1345    -0.2584 H       
  65 H65           -9.2722     3.9510    -1.1982 H       
  66 H66           -7.6762     3.6561    -1.9291 H       
  67 H67           -8.7790     3.7981     1.4535 H       
  68 H68           -8.4330     8.2390     2.8633 H       
  69 H69           -9.7608     7.4195     2.2877 H       
@<TRIPOS>BOND
   1    1    2 ar
   2    1    6 ar
   3    1    7 1
   4    2    3 ar
   5    2   19 1
   6    3    4 ar
   7    3   40 1
   8    4    5 ar
   9    4   41 1
  10    5    6 ar
  11    5   42 1
  12    6    8 1
  13    7   10 1
  14    7   21 2
  15    8    9 1
  16    8   22 2
  17    9   12 ar
  18    9   10 ar
  19   10   11 ar
  20   11   14 ar
  21   11   23 1
  22   12   13 ar
  23   12   24 1
  24   13   14 ar
  25   13   16 1
  26   14   15 1
  27   15   18 1
  28   15   30 1
  29   15   43 1
  30   16   17 1
  31   16   44 1
  32   16   45 1
  33   17   18 1
  34   17   25 1
  35   17   26 1
  36   18   46 1
  37   18   47 1
  38   19   20 1
  39   20   48 1
  40   20   49 1
  41   20   50 1
  42   23   51 1
  43   24   52 1
  44   25   53 1
  45   26   27 2
  46   26   28 1
  47   27   29 1
  48   28   54 1
  49   28   55 1
  50   28   56 1
  51   29   57 1
  52   30   31 1
  53   31   34 1
  54   31   33 1
  55   31   58 1
  56   32   33 1
  57   32   36 1
  58   32   37 1
  59   32   59 1
  60   34   35 1
  61   34   60 1
  62   34   61 1
  63   35   36 1
  64   35   39 1
  65   35   62 1
  66   36   38 1
  67   36   63 1
  68   37   64 1
  69   37   65 1
  70   37   66 1
  71   38   67 1
  72   39   68 1
  73   39   69 1

#	End of record

