#	Name: ASD05430694
#	Creating user name:	WinNT
#	Creation time:	15. 06. 2019 21:00

#	Modifying user name:	WinNT
#	Modification time:	15. 06. 2019 21:00

#	Program:	/corina/corina34_cracker 3.40 0067  02.08.2006

@<TRIPOS>MOLECULE
ASD05430694
  36   36    0    0    0
SMALL
NO_CHARGES


@<TRIPOS>ATOM
   1 C1            -0.0167     1.3781     0.0096 C.ar    
   2 C2             0.0021    -0.0041     0.0020 C.ar    
   3 C3            -1.1855    -0.7115     0.0095 C.ar    
   4 C4            -2.4105     1.3455     0.0438 C.ar    
   5 C5            -1.2230     2.0529     0.0305 C.ar    
   6 C6             1.2780     2.1493     0.0014 C.3     
   7 C7            -2.3919    -0.0367     0.0251 C.ar    
   8 C8             2.0733     1.7974    -1.2574 C.3     
   9 C9             0.9781     3.6496     0.0123 C.3     
  10 C10            2.0972     1.7840     1.2409 C.3     
  11 Si11          -3.9966    -0.9927     0.0430 Si      
  12 C12           -4.5636    -1.2872    -1.7070 C.3     
  13 C13           -3.7352    -2.6288     0.8948 C.3     
  14 C14           -5.2914    -0.0155     0.9592 C.3     
  15 H15            0.9446    -0.5313    -0.0101 H       
  16 H16           -1.1709    -1.7913     0.0029 H       
  17 H17           -3.3530     1.8727     0.0601 H       
  18 H18           -1.2375     3.1327     0.0451 H       
  19 H19            1.4897     2.0577    -2.1405 H       
  20 H20            3.0098     2.3552    -1.2633 H       
  21 H21            2.2870     0.7285    -1.2652 H       
  22 H22            0.4115     3.9003     0.9091 H       
  23 H23            1.9145     4.2074     0.0064 H       
  24 H24            0.3945     3.9099    -0.8707 H       
  25 H25            2.3108     0.7151     1.2331 H       
  26 H26            3.0336     2.3417     1.2350 H       
  27 H27            1.5306     2.0347     2.1377 H       
  28 H28           -3.8061    -1.8589    -2.2430 H       
  29 H29           -5.5000    -1.8450    -1.6965 H       
  30 H30           -4.7166    -0.3299    -2.2053 H       
  31 H31           -3.4034    -2.4565     1.9186 H       
  32 H32           -4.6716    -3.1867     0.9052 H       
  33 H33           -2.9777    -3.2006     0.3587 H       
  34 H34           -5.4443     0.9418     0.4609 H       
  35 H35           -6.2278    -0.5734     0.9697 H       
  36 H36           -4.9596     0.1568     1.9831 H       
@<TRIPOS>BOND
   1    1    2 ar
   2    1    6 1
   3    1    5 ar
   4    2    3 ar
   5    2   15 1
   6    3    7 ar
   7    3   16 1
   8    4    5 ar
   9    4    7 ar
  10    4   17 1
  11    5   18 1
  12    6    8 1
  13    6    9 1
  14    6   10 1
  15    7   11 1
  16    8   19 1
  17    8   20 1
  18    8   21 1
  19    9   22 1
  20    9   23 1
  21    9   24 1
  22   10   25 1
  23   10   26 1
  24   10   27 1
  25   11   12 1
  26   11   13 1
  27   11   14 1
  28   12   28 1
  29   12   29 1
  30   12   30 1
  31   13   31 1
  32   13   32 1
  33   13   33 1
  34   14   34 1
  35   14   35 1
  36   14   36 1

#	End of record

