#	Name: ASD01580004
#	Creating user name:	WinNT
#	Creation time:	15. 06. 2019 19:22

#	Modifying user name:	WinNT
#	Modification time:	15. 06. 2019 19:22

#	Program:	/corina/corina34_cracker 3.40 0067  02.08.2006

@<TRIPOS>MOLECULE
ASD01580004
  33   34    0    0    0
SMALL
NO_CHARGES


@<TRIPOS>ATOM
   1 C1            -0.0184     1.5028     0.0103 C.2     
   2 N2             1.3055    -0.4734    -0.4867 N.3     
   3 C3             0.0021    -0.0041     0.0020 C.3     
   4 C4            -0.2279    -0.5251     1.4221 C.3     
   5 C5            -0.3300    -2.0284     1.3953 C.2     
   6 C6             0.4140    -2.8851     2.1205 C.2     
   7 N7            -0.0031    -4.1470     1.7931 N.pl3   
   8 C8            -0.9883    -4.0174     0.8785 C.2     
   9 N9            -1.1817    -2.7473     0.6492 N.2     
  10 O10            1.0197     2.1211     0.0037 O.2     
  11 O11           -1.1898     2.1580     0.0194 O.3     
  12 C12           -1.1335     3.6089     0.0270 C.3     
  13 C13           -2.5337     4.1659     0.0367 C.ar    
  14 C14           -3.1703     4.4149     1.2383 C.ar    
  15 C15           -4.4547     4.9258     1.2471 C.ar    
  16 C16           -5.1024     5.1882     0.0544 C.ar    
  17 C17           -4.4656     4.9401    -1.1471 C.ar    
  18 C18           -3.1795     4.4332    -1.1559 C.ar    
  19 H19            2.0536    -0.1430     0.1043 H       
  20 H20            1.3222    -1.4794    -0.5627 H       
  21 H21           -0.7864    -0.3745    -0.6531 H       
  22 H22            0.6068    -0.2288     2.0574 H       
  23 H23           -1.1526    -0.1051     1.8179 H       
  24 H24            1.1908    -2.6263     2.8248 H       
  25 H25            0.3440    -4.9790     2.1511 H       
  26 H26           -1.5292    -4.8300     0.4165 H       
  27 H27           -0.6017     3.9472     0.9164 H       
  28 H28           -0.6102     3.9569    -0.8636 H       
  29 H29           -2.6642     4.2099     2.1701 H       
  30 H30           -4.9523     5.1197     2.1859 H       
  31 H31           -6.1062     5.5867     0.0614 H       
  32 H32           -4.9718     5.1447    -2.0789 H       
  33 H33           -2.6806     4.2428    -2.0947 H       
@<TRIPOS>BOND
   1    1    3 1
   2    1   10 2
   3    1   11 1
   4    2    3 1
   5    2   19 1
   6    2   20 1
   7    3    4 1
   8    3   21 1
   9    4    5 1
  10    4   22 1
  11    4   23 1
  12    5    6 2
  13    5    9 1
  14    6    7 1
  15    6   24 1
  16    7    8 1
  17    7   25 1
  18    8    9 2
  19    8   26 1
  20   11   12 1
  21   12   13 1
  22   12   27 1
  23   12   28 1
  24   13   14 ar
  25   13   18 ar
  26   14   15 ar
  27   14   29 1
  28   15   16 ar
  29   15   30 1
  30   16   17 ar
  31   16   31 1
  32   17   18 ar
  33   17   32 1
  34   18   33 1

#	End of record

