#	Name: ASD08178104
#	Creating user name:	WinNT
#	Creation time:	15. 06. 2019 21:18

#	Modifying user name:	WinNT
#	Modification time:	15. 06. 2019 21:18

#	Program:	/corina/corina34_cracker 3.40 0067  02.08.2006

@<TRIPOS>MOLECULE
ASD08178104
 100  105    0    0    0
SMALL
NO_CHARGES


@<TRIPOS>ATOM
   1 C1            -0.0184     1.5028     0.0103 C.2     
   2 C2             0.0021    -0.0041     0.0020 C.3     
   3 C3             0.0221    -0.5218     1.4416 C.3     
   4 C4             0.0429    -2.0516     1.4332 C.3     
   5 C5             0.0630    -2.5693     2.8728 C.3     
   6 C6             0.0834    -4.0761     2.8645 C.2     
   7 N7             1.1396    -4.8258     2.8513 N.2     
   8 N8             0.9467    -6.0734     2.8463 N.2     
   9 C9            -0.2824    -6.4936     2.8547 C.2     
  10 S10           -1.3267    -5.1359     2.8788 S.3     
  11 N11           -0.6838    -7.8252     2.8506 N.am    
  12 N12            1.0171     2.2809     0.0046 N.2     
  13 C13            0.2391    -8.8073     2.8374 C.2     
  14 O14            1.4197    -8.5298     2.8290 O.2     
  15 C15           -0.1960   -10.2501     2.8329 C.3     
  16 C16           -1.0315   -10.5191     1.6079 C.ar    
  17 N17            0.7904     3.5228     0.0134 N.2     
  18 C18           -0.4495     3.9094     0.0274 C.2     
  19 S19           -1.4568     2.5237     0.0218 S.3     
  20 C20           -1.2602   -10.5742    -0.7748 C.ar    
  21 C21           -2.3359   -10.9563     1.7432 C.ar    
  22 C22           -3.1022   -11.2030     0.6195 C.ar    
  23 C23           -2.5643   -11.0122    -0.6395 C.ar    
  24 C24           -0.4952   -10.3232     0.3489 C.ar    
  25 N25           -0.8870     5.2295     0.0390 N.am    
  26 C26            0.0089     6.2364     0.0358 C.2     
  27 O27            1.1967     5.9912     0.0228 O.2     
  28 C28           -0.4651     7.6668     0.0485 C.3     
  29 C29           -1.2853     7.9133     1.2885 C.ar    
  30 C30            0.7437     8.6047     0.0418 C.3     
  31 C31           -2.6033     8.3148     1.1769 C.ar    
  32 C32           -3.3556     8.5409     2.3143 C.ar    
  33 C33           -2.7901     8.3651     3.5634 C.ar    
  34 C34           -1.4723     7.9627     3.6750 C.ar    
  35 C35           -0.7212     7.7324     2.5375 C.ar    
  36 C36            1.0378   -11.1548     2.8175 C.3     
  37 O37            0.6227   -12.5414     2.9325 O.3     
  38 C38            1.5923   -13.4696     2.9345 C.2     
  39 C39            1.2375   -14.9296     3.0507 C.3     
  40 O40            2.7496   -13.1345     2.8432 O.2     
  41 C41            2.5170   -15.7705     3.0284 C.3     
  42 C42            0.4989   -15.1733     4.3696 C.3     
  43 C43            0.1952   -16.6667     4.5102 C.3     
  44 N44            1.4509   -17.4275     4.4838 N.3     
  45 C45            2.1548   -17.2465     3.2078 C.3     
  46 O46            0.2890     9.9795    -0.0653 O.3     
  47 C47            1.2328    10.9338    -0.0846 C.2     
  48 O48            2.4003    10.6304    -0.0143 O.2     
  49 C49            0.8364    12.3836    -0.1940 C.3     
  50 C50            2.0927    13.2590    -0.1947 C.3     
  51 C51            1.6872    14.7245    -0.3671 C.3     
  52 N52            0.9558    14.8860    -1.6302 N.3     
  53 C53           -0.2791    14.0913    -1.6340 C.3     
  54 C54            0.0677    12.6068    -1.4993 C.3     
  55 H55           -0.8875    -0.3767    -0.5057 H       
  56 H56            0.8922    -0.3525    -0.5218 H       
  57 H57            0.9118    -0.1491     1.9494 H       
  58 H58           -0.8680    -0.1733     1.9655 H       
  59 H59           -0.8467    -2.4242     0.9255 H       
  60 H60            0.9330    -2.4000     0.9094 H       
  61 H61            0.9526    -2.1967     3.3806 H       
  62 H62           -0.8271    -2.2209     3.3967 H       
  63 H63           -1.6281    -8.0470     2.8573 H       
  64 H64           -0.7854   -10.4546     3.7267 H       
  65 H65           -0.8413   -10.4212    -1.7584 H       
  66 H66           -2.7561   -11.1054     2.7269 H       
  67 H67           -4.1211   -11.5453     0.7253 H       
  68 H68           -3.1630   -11.2050    -1.5174 H       
  69 H69            0.5236    -9.9810     0.2432 H       
  70 H70           -1.8369     5.4256     0.0495 H       
  71 H71           -1.0758     7.8550    -0.8345 H       
  72 H72            1.3062     8.4791     0.9670 H       
  73 H73            1.3838     8.3665    -0.8077 H       
  74 H74           -3.0452     8.4521     0.2010 H       
  75 H75           -4.3852     8.8552     2.2271 H       
  76 H76           -3.3776     8.5424     4.4520 H       
  77 H77           -1.0303     7.8257     4.6508 H       
  78 H78            0.3083     7.4181     2.6247 H       
  79 H79            1.5798   -11.0141     1.8823 H       
  80 H80            1.6864   -10.8989     3.6553 H       
  81 H81            0.5984   -15.2167     2.2157 H       
  82 H82            3.0256   -15.6340     2.0740 H       
  83 H83            3.1735   -15.4557     3.8396 H       
  84 H84            1.1237   -14.8492     5.2019 H       
  85 H85           -0.4344   -14.6102     4.3735 H       
  86 H86           -0.3181   -16.8456     5.4550 H       
  87 H87           -0.4410   -16.9871     3.6851 H       
  88 H88            2.0423   -17.1762     5.2618 H       
  89 H89            1.5094   -17.5642     2.3888 H       
  90 H90            3.0647   -17.8465     3.2067 H       
  91 H91            0.2049    12.6534     0.6524 H       
  92 H92            2.6220    13.1366     0.7503 H       
  93 H93            2.7428    12.9620    -1.0176 H       
  94 H94            1.0484    15.0248     0.4635 H       
  95 H95            2.5804    15.3491    -0.3823 H       
  96 H96            0.7602    15.8588    -1.8130 H       
  97 H97           -0.9087    14.3945    -0.7975 H       
  98 H98           -0.8140    14.2559    -2.5693 H       
  99 H99            0.6859    12.2995    -2.3428 H       
 100 H100          -0.8498    12.0185    -1.4865 H       
@<TRIPOS>BOND
   1    1    2 1
   2    1   12 2
   3    1   19 1
   4    2    3 1
   5    2   55 1
   6    2   56 1
   7    3    4 1
   8    3   57 1
   9    3   58 1
  10    4    5 1
  11    4   59 1
  12    4   60 1
  13    5    6 1
  14    5   61 1
  15    5   62 1
  16    6    7 2
  17    6   10 1
  18    7    8 1
  19    8    9 2
  20    9   10 1
  21    9   11 1
  22   11   13 am
  23   11   63 1
  24   12   17 1
  25   13   14 2
  26   13   15 1
  27   15   16 1
  28   15   36 1
  29   15   64 1
  30   16   21 ar
  31   16   24 ar
  32   17   18 2
  33   18   19 1
  34   18   25 1
  35   20   24 ar
  36   20   23 ar
  37   20   65 1
  38   21   22 ar
  39   21   66 1
  40   22   23 ar
  41   22   67 1
  42   23   68 1
  43   24   69 1
  44   25   26 am
  45   25   70 1
  46   26   27 2
  47   26   28 1
  48   28   29 1
  49   28   30 1
  50   28   71 1
  51   29   31 ar
  52   29   35 ar
  53   30   46 1
  54   30   72 1
  55   30   73 1
  56   31   32 ar
  57   31   74 1
  58   32   33 ar
  59   32   75 1
  60   33   34 ar
  61   33   76 1
  62   34   35 ar
  63   34   77 1
  64   35   78 1
  65   36   37 1
  66   36   79 1
  67   36   80 1
  68   37   38 1
  69   38   39 1
  70   38   40 2
  71   39   41 1
  72   39   42 1
  73   39   81 1
  74   41   45 1
  75   41   82 1
  76   41   83 1
  77   42   43 1
  78   42   84 1
  79   42   85 1
  80   43   44 1
  81   43   86 1
  82   43   87 1
  83   44   45 1
  84   44   88 1
  85   45   89 1
  86   45   90 1
  87   46   47 1
  88   47   48 2
  89   47   49 1
  90   49   50 1
  91   49   54 1
  92   49   91 1
  93   50   51 1
  94   50   92 1
  95   50   93 1
  96   51   52 1
  97   51   94 1
  98   51   95 1
  99   52   53 1
 100   52   96 1
 101   53   54 1
 102   53   97 1
 103   53   98 1
 104   54   99 1
 105   54  100 1

#	End of record

