#	Name: ASD03092012
#	Creating user name:	WinNT
#	Creation time:	15. 06. 2019 20:31

#	Modifying user name:	WinNT
#	Modification time:	15. 06. 2019 20:31

#	Program:	/corina/corina34_cracker 3.40 0067  02.08.2006

@<TRIPOS>MOLECULE
ASD03092012
  48   50    0    0    0
SMALL
NO_CHARGES


@<TRIPOS>ATOM
   1 N1             0.2855     0.9433    -0.3789 N.pl3   
   2 C2             0.0911    -0.3156     0.1063 C.2     
   3 C3            -1.2515    -0.4793     0.2937 C.2     
   4 C4            -1.8852     0.7104    -0.0876 C.2     
   5 N5            -0.9671     1.5612    -0.4841 N.2     
   6 C6             1.5759     1.5454    -0.7231 C.3     
   7 C7             1.8357     1.3681    -2.1969 C.2     
   8 N8             2.9712     1.8462    -2.7433 N.am    
   9 O9             1.0230     0.7953    -2.8914 O.2     
  10 C10            3.2238     1.6739    -4.1761 C.3     
  11 C11            3.9530     2.5382    -1.9045 C.3     
  12 N12           -3.2636     0.9529    -0.0482 N.pl3   
  13 C13           -3.7583     2.2264    -0.3459 C.ar    
  14 C14           -5.0292     2.3696    -0.8869 C.ar    
  15 C15           -5.5161     3.6305    -1.1805 C.ar    
  16 C16           -4.7353     4.7499    -0.9350 C.ar    
  17 C17           -3.4684     4.6075    -0.3958 C.ar    
  18 C18           -2.9812     3.3503    -0.0956 C.ar    
  19 F19           -6.7524     3.7714    -1.7068 F       
  20 F20           -5.2115     5.9809    -1.2230 F       
  21 C21            1.1424    -1.3206     0.3798 C.ar    
  22 C22            0.9066    -2.3497     1.2916 C.ar    
  23 C23            1.8890    -3.2858     1.5442 C.ar    
  24 C24            3.1073    -3.2072     0.8960 C.ar    
  25 C25            3.3508    -2.1863    -0.0132 C.ar    
  26 C26            2.3699    -1.2454    -0.2774 C.ar    
  27 O27            4.5504    -2.1137    -0.6478 O.3     
  28 C28            5.5138    -3.1205    -0.3312 C.3     
  29 H29           -1.7381    -1.3676     0.6685 H       
  30 H30            1.5565     2.6084    -0.4829 H       
  31 H31            2.3675     1.0585    -0.1535 H       
  32 H32            2.8182     2.5260    -4.7215 H       
  33 H33            4.2978     1.6087    -4.3504 H       
  34 H34            2.7433     0.7588    -4.5222 H       
  35 H35            4.6647     1.8150    -1.5063 H       
  36 H36            4.4838     3.2790    -2.5023 H       
  37 H37            3.4408     3.0354    -1.0807 H       
  38 H38           -3.8754     0.2374     0.1856 H       
  39 H39           -5.6366     1.4974    -1.0785 H       
  40 H40           -2.8618     5.4806    -0.2058 H       
  41 H41           -1.9926     3.2406     0.3251 H       
  42 H42           -0.0441    -2.4137     1.8000 H       
  43 H43            1.7053    -4.0818     2.2506 H       
  44 H44            3.8726    -3.9421     1.0976 H       
  45 H45            2.5581    -0.4508    -0.9843 H       
  46 H46            6.4238    -2.9459    -0.9053 H       
  47 H47            5.7430    -3.0820     0.7337 H       
  48 H48            5.1095    -4.1015    -0.5807 H       
@<TRIPOS>BOND
   1    1    2 1
   2    1    6 1
   3    1    5 1
   4    2    3 2
   5    2   21 1
   6    3    4 1
   7    3   29 1
   8    4    5 2
   9    4   12 1
  10    6    7 1
  11    6   30 1
  12    6   31 1
  13    7    8 am
  14    7    9 2
  15    8   10 1
  16    8   11 1
  17   10   32 1
  18   10   33 1
  19   10   34 1
  20   11   35 1
  21   11   36 1
  22   11   37 1
  23   12   13 1
  24   12   38 1
  25   13   14 ar
  26   13   18 ar
  27   14   15 ar
  28   14   39 1
  29   15   16 ar
  30   15   19 1
  31   16   17 ar
  32   16   20 1
  33   17   18 ar
  34   17   40 1
  35   18   41 1
  36   21   22 ar
  37   21   26 ar
  38   22   23 ar
  39   22   42 1
  40   23   24 ar
  41   23   43 1
  42   24   25 ar
  43   24   44 1
  44   25   26 ar
  45   25   27 1
  46   26   45 1
  47   27   28 1
  48   28   46 1
  49   28   47 1
  50   28   48 1

#	End of record

