#	Name: ASD03330517
#	Creating user name:	WinNT
#	Creation time:	15. 06. 2019 20:37

#	Modifying user name:	WinNT
#	Modification time:	15. 06. 2019 20:37

#	Program:	/corina/corina34_cracker 3.40 0067  02.08.2006

@<TRIPOS>MOLECULE
ASD03330517
  63   65    0    0    0
SMALL
NO_CHARGES


@<TRIPOS>ATOM
   1 C1            -0.2665     2.0927    -0.6969 C.3     
   2 N2            -0.1054     0.6555    -0.4353 N.3     
   3 C3             0.3521    -0.0567    -1.6422 C.3     
   4 C4             1.5393     0.6854    -2.1990 C.2     
   5 N5             1.8736     1.9528    -1.8408 N.pl3   
   6 C6             1.1102     2.7463    -0.8728 C.3     
   7 C7             2.4554     0.2724    -3.1077 C.2     
   8 N8             3.3366     1.2938    -3.2874 N.2     
   9 C9             2.9853     2.2950    -2.5277 C.2     
  10 C10            3.7026     3.6169    -2.4323 C.3     
  11 C11            2.4916    -1.0397    -3.7767 C.2     
  12 O12            1.6412    -1.8729    -3.5277 O.2     
  13 C13            3.5028    -2.6215    -5.3299 C.3     
  14 N14            3.4669    -1.3168    -4.6646 N.am    
  15 C15            4.2307    -3.6290    -4.4378 C.3     
  16 C16            5.1390     3.3848    -1.9595 C.3     
  17 C17           -1.3508     0.0714     0.0803 C.3     
  18 C18            3.4239    -3.8524    -3.1571 C.3     
  19 C19            4.3806    -4.9562    -5.1841 C.3     
  20 C20            5.6156    -3.0860    -4.0798 C.3     
  21 C21            4.2308    -2.4958    -6.6434 C.2     
  22 N22            4.2248    -3.5212    -7.5181 N.am    
  23 O23            4.8221    -1.4719    -6.9134 O.2     
  24 C24            4.9986    -3.4302    -8.7587 C.3     
  25 C25            5.8672     4.7269    -1.8627 C.3     
  26 C26            5.8850     5.3979    -3.2376 C.3     
  27 C27            4.4485     5.6300    -3.7104 C.3     
  28 C28            3.7203     4.2879    -3.8073 C.3     
  29 H29           -0.8526     2.2322    -1.6052 H       
  30 H30           -0.7839     2.5579     0.1421 H       
  31 H31            0.6429    -1.0743    -1.3814 H       
  32 H32           -0.4481    -0.0797    -2.3819 H       
  33 H33            0.9894     3.7636    -1.2450 H       
  34 H34            1.6338     2.7636     0.0830 H       
  35 H35            3.1853     4.2604    -1.7207 H       
  36 H36            2.4844    -2.9654    -5.5104 H       
  37 H37            4.1451    -0.6523    -4.8632 H       
  38 H38            5.1264     2.9068    -0.9800 H       
  39 H39            5.6563     2.7413    -2.6712 H       
  40 H40           -2.1618     0.2677    -0.6210 H       
  41 H41           -1.2255    -1.0049     0.1989 H       
  42 H42           -1.5891     0.5180     1.0456 H       
  43 H43            2.4373    -4.2393    -3.4121 H       
  44 H44            3.9425    -4.5702    -2.5215 H       
  45 H45            3.3172    -2.9069    -2.6254 H       
  46 H46            4.8572    -4.7790    -6.1483 H       
  47 H47            4.9948    -5.6371    -4.5949 H       
  48 H48            3.3966    -5.3979    -5.3410 H       
  49 H49            5.5089    -2.1405    -3.5481 H       
  50 H50            6.1342    -3.8037    -3.4442 H       
  51 H51            6.1904    -2.9268    -4.9922 H       
  52 H52            3.7081    -4.3193    -7.3261 H       
  53 H53            4.8718    -4.3473    -9.3340 H       
  54 H54            4.6463    -2.5817    -9.3453 H       
  55 H55            6.0533    -3.2940    -8.5199 H       
  56 H56            5.3500     5.3704    -1.1510 H       
  57 H57            6.8906     4.5615    -1.5258 H       
  58 H58            6.4038     6.3540    -3.1686 H       
  59 H59            6.4023     4.7543    -3.9493 H       
  60 H60            3.9313     6.2735    -2.9988 H       
  61 H61            4.4612     6.1080    -4.6899 H       
  62 H62            4.2376     3.6444    -4.5189 H       
  63 H63            2.6970     4.4532    -4.1441 H       
@<TRIPOS>BOND
   1    1    2 1
   2    1    6 1
   3    1   29 1
   4    1   30 1
   5    2    3 1
   6    2   17 1
   7    3    4 1
   8    3   31 1
   9    3   32 1
  10    4    5 1
  11    4    7 2
  12    5    6 1
  13    5    9 1
  14    6   33 1
  15    6   34 1
  16    7    8 1
  17    7   11 1
  18    8    9 2
  19    9   10 1
  20   10   16 1
  21   10   28 1
  22   10   35 1
  23   11   12 2
  24   11   14 am
  25   13   14 1
  26   13   15 1
  27   13   21 1
  28   13   36 1
  29   14   37 1
  30   15   18 1
  31   15   19 1
  32   15   20 1
  33   16   25 1
  34   16   38 1
  35   16   39 1
  36   17   40 1
  37   17   41 1
  38   17   42 1
  39   18   43 1
  40   18   44 1
  41   18   45 1
  42   19   46 1
  43   19   47 1
  44   19   48 1
  45   20   49 1
  46   20   50 1
  47   20   51 1
  48   21   22 am
  49   21   23 2
  50   22   24 1
  51   22   52 1
  52   24   53 1
  53   24   54 1
  54   24   55 1
  55   25   26 1
  56   25   56 1
  57   25   57 1
  58   26   27 1
  59   26   58 1
  60   26   59 1
  61   27   28 1
  62   27   60 1
  63   27   61 1
  64   28   62 1
  65   28   63 1

#	End of record

