#	Name: ASD00460048
#	Creating user name:	WinNT
#	Creation time:	15. 06. 2019 18:36

#	Modifying user name:	WinNT
#	Modification time:	15. 06. 2019 18:36

#	Program:	/corina/corina34_cracker 3.40 0067  02.08.2006

@<TRIPOS>MOLECULE
ASD00460048
 146  144    0    0    0
SMALL
NO_CHARGES


@<TRIPOS>ATOM
   1 Cl1            0.0000     0.0000     0.0000 Cl      
   2 H2             0.0000     1.3700     0.0000 H       
   3 S3            10.7994    13.4942    32.9258 S.3     
   4 S4            10.5169    11.4656    33.0122 S.3     
   5 O5            11.7885    13.0452    21.9224 O.2     
   6 O6             8.2232    14.1790    19.2060 O.2     
   7 O7            10.7966    14.9749    26.0051 O.2     
   8 O8             9.9567    14.0957    14.9206 O.2     
   9 O9             6.3117    13.2310    12.2108 O.2     
  10 O10           13.0511    12.3775    29.0949 O.2     
  11 O11           15.3575    13.8383    30.9922 O.2     
  12 O12           17.3277    13.1315    32.0257 O.2     
  13 O13            8.9842     9.9322    37.2851 O.3     
  14 O14            9.4254    12.0577    37.6986 O.2     
  15 N15           10.2932    13.9695    19.9760 N.am    
  16 N16           10.6398    13.8362    23.6477 N.am    
  17 N17            8.6724    13.6562    16.6754 N.am    
  18 N18           12.3290    13.6599    26.9240 N.am    
  19 N19            8.0983    14.2233    13.0744 N.am    
  20 N20            7.6954    18.4979    19.9382 N.2     
  21 N21           12.1785    10.2865    14.7758 N.2     
  22 N22           11.1236     8.7400    22.6226 N.2     
  23 N23           12.7749    14.0109    30.5706 N.am    
  24 N24            6.6677    14.0346     9.7026 N.3     
  25 N25            6.4787    19.0956    21.8206 N.pl3   
  26 N26            5.7663    19.7526    19.6454 N.pl3   
  27 N27           11.0211    12.7949     7.0986 N.2     
  28 N28           14.2921    10.0516    15.7024 N.pl3   
  29 N29           13.9766     9.9762    13.3433 N.pl3   
  30 N30           15.3354    12.4436    32.7168 N.am    
  31 N31           12.6453     7.3741    23.7180 N.pl3   
  32 N32           12.2118     7.1018    21.3924 N.pl3   
  33 N33           13.1427    12.9310     8.0268 N.pl3   
  34 N34           12.7637    13.5231     5.7516 N.pl3   
  35 N35            9.0024    12.9708    35.2408 N.3     
  36 C36            9.8647    14.2827    21.3415 C.3     
  37 C37            9.8303    15.8007    21.5297 C.3     
  38 C38            9.8312    13.6211    17.5711 C.3     
  39 C39           11.5819    13.2470    24.6024 C.3     
  40 C40           10.4573    12.2254    17.5405 C.3     
  41 C41           11.1938    11.7914    24.8697 C.3     
  42 C42           10.8339    13.6766    22.3236 C.2     
  43 C43            8.7573    16.4031    20.6205 C.3     
  44 C44            9.3904    13.9433    18.9757 C.2     
  45 C45           11.0167    11.9479    16.1438 C.3     
  46 C46           11.3562    10.9762    23.5852 C.3     
  47 C47           11.5401    14.0232    25.8935 C.2     
  48 C48            8.7228    17.9211    20.8087 C.3     
  49 C49            7.6514    13.9389    14.4402 C.3     
  50 C50            8.8434    13.9028    15.3615 C.2     
  51 C51           11.6429    10.5522    16.1132 C.3     
  52 C52           10.9681     9.5206    23.8525 C.3     
  53 C53           12.2884    14.4145    28.1791 C.3     
  54 C54            7.8124    14.1175    10.6196 C.3     
  55 C55            6.6852    15.0329    14.8989 C.3     
  56 C56            8.8721    13.0943    10.2063 C.3     
  57 C57            7.3527    13.8250    12.0247 C.2     
  58 C58           13.2241    15.6209    28.0793 C.3     
  59 C59           12.7323    13.5270    29.3134 C.2     
  60 C60            9.4286    13.4641     8.8299 C.3     
  61 C61           13.2063    13.1482    31.6732 C.3     
  62 C62           10.4883    12.4409     8.4165 C.3     
  63 C63            6.6656    19.1043    20.4586 C.2     
  64 C64           12.6051    13.6576    32.9846 C.3     
  65 C65           13.4590    10.1080    14.6102 C.2     
  66 C66           11.9780     7.7566    22.5785 C.2     
  67 C67           14.7102    13.1690    31.7685 C.2     
  68 C68           12.2861    13.0778     6.9615 C.2     
  69 C69           16.6804    12.4623    32.8020 C.2     
  70 C70           10.5482    11.1248    34.7936 C.3     
  71 C71            9.2083    11.5266    35.4133 C.3     
  72 C72           17.3795    11.6511    33.8624 C.3     
  73 C73            9.2140    11.1920    36.8827 C.2     
  74 H74            8.9980     9.7661    38.2376 H       
  75 H75           11.2268    13.7810    19.7919 H       
  76 H76            9.8762    14.3412    23.9686 H       
  77 H77            7.7820    13.5019    17.0281 H       
  78 H78           12.9237    12.8988    26.8347 H       
  79 H79            8.9308    14.6983    12.9255 H       
  80 H80           12.5199    14.9303    30.7453 H       
  81 H81            6.2542    13.1145     9.7227 H       
  82 H82            5.9822    14.7439     9.9150 H       
  83 H83            7.1466    18.6956    22.3993 H       
  84 H84            5.6790    19.4895    22.2030 H       
  85 H85            5.8982    19.7587    18.6844 H       
  86 H86            5.0000    20.2039    20.0327 H       
  87 H87           13.9396    10.2191    16.5904 H       
  88 H88           15.2324     9.8442    15.5850 H       
  89 H89           13.3888    10.0160    12.5727 H       
  90 H90           14.9295     9.8434    13.2201 H       
  91 H91           14.8175    11.9081    33.3380 H       
  92 H92           12.5415     7.8856    24.5356 H       
  93 H93           13.2200     6.5928    23.7044 H       
  94 H94           11.7410     7.3717    20.5884 H       
  95 H95           12.8476     6.3700    21.3596 H       
  96 H96           12.8293    12.5210     8.8482 H       
  97 H97           14.0603    13.2375     7.9571 H       
  98 H98           12.1594    13.6266     5.0000 H       
  99 H99           13.7051    13.7336     5.6496 H       
 100 H100           9.7988    13.4921    35.5756 H       
 101 H101           8.8025    13.1950    34.2776 H       
 102 H102           8.8695    13.8726    21.5130 H       
 103 H103           9.5980    16.0328    22.5690 H       
 104 H104          10.8025    16.2209    21.2721 H       
 105 H105          10.5661    14.3563    17.2433 H       
 106 H106          12.5896    13.2843    24.1885 H       
 107 H107          11.2638    12.1729    18.2719 H       
 108 H108           9.6984    11.4814    17.7824 H       
 109 H109          11.8395    11.3798    25.6454 H       
 110 H110          10.1558    11.7468    25.1995 H       
 111 H111           8.9895    16.1710    19.5811 H       
 112 H112           7.7850    15.9829    20.8781 H       
 113 H113          10.2103    12.0004    15.4123 H       
 114 H114          11.7757    12.6920    15.9019 H       
 115 H115          10.7105    11.3878    22.8095 H       
 116 H116          12.3941    11.0208    23.2554 H       
 117 H117           9.6950    18.3413    20.5511 H       
 118 H118           8.4905    18.1532    21.8481 H       
 119 H119           7.1450    12.9739    14.4633 H       
 120 H120          10.8840     9.8082    16.3551 H       
 121 H121          12.4493    10.4997    16.8446 H       
 122 H122           9.9301     9.4760    24.1823 H       
 123 H123          11.6138     9.1089    24.6282 H       
 124 H124          11.2707    14.7583    28.3636 H       
 125 H125           8.2392    15.1196    10.5783 H       
 126 H126           5.8230    15.0590    14.2326 H       
 127 H127           6.3527    14.8213    15.9152 H       
 128 H128           7.1916    15.9979    14.8759 H       
 129 H129           9.6810    13.0936    10.9369 H       
 130 H130           8.4219    12.1027    10.1617 H       
 131 H131          14.2418    15.2771    27.8948 H       
 132 H132          12.9030    16.2628    27.2589 H       
 133 H133          13.1939    16.1824    29.0131 H       
 134 H134           8.6197    13.4648     8.0992 H       
 135 H135           9.8788    14.4557     8.8744 H       
 136 H136          12.8680    12.1283    31.4904 H       
 137 H137          10.0381    11.4492     8.3720 H       
 138 H138          11.2972    12.4401     9.1472 H       
 139 H139          12.8708    14.7056    33.1232 H       
 140 H140          12.9961    13.0707    33.8158 H       
 141 H141          10.7196    10.0608    34.9570 H       
 142 H142          11.3502    11.6977    35.2591 H       
 143 H143           8.4023    10.9832    34.9201 H       
 144 H144          18.4570    11.7913    33.7756 H       
 145 H145          17.0487    11.9791    34.8478 H       
 146 H146          17.1386    10.5963    33.7307 H       
@<TRIPOS>BOND
   1    1    2 1
   2    3    4 1
   3    3   64 1
   4    4   70 1
   5    5   42 2
   6    6   44 2
   7    7   47 2
   8    8   50 2
   9    9   57 2
  10   10   59 2
  11   11   67 2
  12   12   69 2
  13   13   73 1
  14   13   74 1
  15   14   73 2
  16   15   44 am
  17   15   36 1
  18   15   75 1
  19   16   42 am
  20   16   39 1
  21   16   76 1
  22   17   50 am
  23   17   38 1
  24   17   77 1
  25   18   47 am
  26   18   53 1
  27   18   78 1
  28   19   57 am
  29   19   49 1
  30   19   79 1
  31   20   48 1
  32   20   63 2
  33   21   51 1
  34   21   65 2
  35   22   52 1
  36   22   66 2
  37   23   59 am
  38   23   61 1
  39   23   80 1
  40   24   54 1
  41   24   81 1
  42   24   82 1
  43   25   63 1
  44   25   83 1
  45   25   84 1
  46   26   63 1
  47   26   85 1
  48   26   86 1
  49   27   62 1
  50   27   68 2
  51   28   65 1
  52   28   87 1
  53   28   88 1
  54   29   65 1
  55   29   89 1
  56   29   90 1
  57   30   67 am
  58   30   69 am
  59   30   91 1
  60   31   66 1
  61   31   92 1
  62   31   93 1
  63   32   66 1
  64   32   94 1
  65   32   95 1
  66   33   68 1
  67   33   96 1
  68   33   97 1
  69   34   68 1
  70   34   98 1
  71   34   99 1
  72   35   71 1
  73   35  100 1
  74   35  101 1
  75   36   37 1
  76   36   42 1
  77   36  102 1
  78   37   43 1
  79   37  103 1
  80   37  104 1
  81   38   40 1
  82   38   44 1
  83   38  105 1
  84   39   41 1
  85   39   47 1
  86   39  106 1
  87   40   45 1
  88   40  107 1
  89   40  108 1
  90   41   46 1
  91   41  109 1
  92   41  110 1
  93   43   48 1
  94   43  111 1
  95   43  112 1
  96   45   51 1
  97   45  113 1
  98   45  114 1
  99   46   52 1
 100   46  115 1
 101   46  116 1
 102   48  117 1
 103   48  118 1
 104   49   50 1
 105   49   55 1
 106   49  119 1
 107   51  120 1
 108   51  121 1
 109   52  122 1
 110   52  123 1
 111   53   58 1
 112   53   59 1
 113   53  124 1
 114   54   56 1
 115   54   57 1
 116   54  125 1
 117   55  126 1
 118   55  127 1
 119   55  128 1
 120   56   60 1
 121   56  129 1
 122   56  130 1
 123   58  131 1
 124   58  132 1
 125   58  133 1
 126   60   62 1
 127   60  134 1
 128   60  135 1
 129   61   64 1
 130   61   67 1
 131   61  136 1
 132   62  137 1
 133   62  138 1
 134   64  139 1
 135   64  140 1
 136   69   72 1
 137   70   71 1
 138   70  141 1
 139   70  142 1
 140   71   73 1
 141   71  143 1
 142   72  144 1
 143   72  145 1
 144   72  146 1

#	End of record

