#	Name: ASD03092076
#	Creating user name:	WinNT
#	Creation time:	15. 06. 2019 20:31

#	Modifying user name:	WinNT
#	Modification time:	15. 06. 2019 20:31

#	Program:	/corina/corina34_cracker 3.40 0067  02.08.2006

@<TRIPOS>MOLECULE
ASD03092076
  46   48    0    0    0
SMALL
NO_CHARGES


@<TRIPOS>ATOM
   1 N1             0.3496     1.0031    -0.2136 N.pl3   
   2 C2             0.0736    -0.3037     0.0599 C.2     
   3 C3            -1.2848    -0.4461     0.0483 C.2     
   4 C4            -1.8440     0.8053    -0.2393 C.2     
   5 N5            -0.8686     1.6714    -0.3901 N.2     
   6 N6            -3.2117     1.0866    -0.3427 N.pl3   
   7 C7            -3.6428     2.4046    -0.5222 C.ar    
   8 C8            -4.8280     2.6626    -1.1987 C.ar    
   9 C9            -5.2521     3.9654    -1.3745 C.ar    
  10 C10           -4.4966     5.0136    -0.8772 C.ar    
  11 C11           -2.8893     3.4577    -0.0191 C.ar    
  12 C12            1.0635    -1.3714     0.3213 C.ar    
  13 C13            1.6833     1.6031    -0.3010 C.3     
  14 C14            2.3549    -1.0623     0.7626 C.ar    
  15 C15            3.2463    -2.0892     0.9940 C.ar    
  16 N16            2.8949    -3.3468     0.8047 N.ar    
  17 C17            1.6879    -3.6818     0.3895 C.ar    
  18 C18            0.7326    -2.7192     0.1396 C.ar    
  19 C19            1.3469    -5.1363     0.1920 C.3     
  20 O20            1.6974     2.5832    -1.3409 O.3     
  21 C21           -3.3144     4.7587    -0.2022 C.ar    
  22 C22            2.0315     2.2687     1.0319 C.3     
  23 C23            3.4705     2.7862     0.9830 C.3     
  24 F24           -4.9129     6.2870    -1.0510 F       
  25 C25           -6.5380     4.2460    -2.1085 C.3     
  26 F26           -7.1175     3.0385    -2.5124 F       
  27 F27           -7.4197     4.9260    -1.2614 F       
  28 F28           -6.2706     5.0341    -3.2330 F       
  29 H29           -1.8303    -1.3606     0.2287 H       
  30 H30           -3.8601     0.3671    -0.2897 H       
  31 H31           -5.4173     1.8453    -1.5874 H       
  32 H32           -1.9694     3.2592     0.5108 H       
  33 H33            2.4167     0.8278    -0.5225 H       
  34 H34            2.6494    -0.0351     0.9193 H       
  35 H35            4.2454    -1.8608     1.3344 H       
  36 H36           -0.2533    -3.0006    -0.2000 H       
  37 H37            0.9453    -5.5445     1.1195 H       
  38 H38            0.6028    -5.2309    -0.5988 H       
  39 H39            2.2460    -5.6856    -0.0874 H       
  40 H40            1.0678     3.3052    -1.2094 H       
  41 H41           -2.7266     5.5780     0.1848 H       
  42 H42            1.3516     3.1018     1.2105 H       
  43 H43            1.9342     1.5412     1.8377 H       
  44 H44            3.5677     3.5138     0.1772 H       
  45 H45            3.7185     3.2604     1.9326 H       
  46 H46            4.1503     1.9531     0.8044 H       
@<TRIPOS>BOND
   1    1    2 1
   2    1   13 1
   3    1    5 1
   4    2    3 2
   5    2   12 1
   6    3    4 1
   7    3   29 1
   8    4    5 2
   9    4    6 1
  10    6    7 1
  11    6   30 1
  12    7    8 ar
  13    7   11 ar
  14    8    9 ar
  15    8   31 1
  16    9   10 ar
  17    9   25 1
  18   10   21 ar
  19   10   24 1
  20   11   21 ar
  21   11   32 1
  22   12   14 ar
  23   12   18 ar
  24   13   20 1
  25   13   22 1
  26   13   33 1
  27   14   15 ar
  28   14   34 1
  29   15   16 ar
  30   15   35 1
  31   16   17 ar
  32   17   18 ar
  33   17   19 1
  34   18   36 1
  35   19   37 1
  36   19   38 1
  37   19   39 1
  38   20   40 1
  39   21   41 1
  40   22   23 1
  41   22   42 1
  42   22   43 1
  43   23   44 1
  44   23   45 1
  45   23   46 1
  46   25   26 1
  47   25   27 1
  48   25   28 1

#	End of record

