#	Name: ASD01940509
#	Creating user name:	WinNT
#	Creation time:	15. 06. 2019 20:12

#	Modifying user name:	WinNT
#	Modification time:	15. 06. 2019 20:12

#	Program:	/corina/corina34_cracker 3.40 0067  02.08.2006

@<TRIPOS>MOLECULE
ASD01940509
  52   54    0    0    0
SMALL
NO_CHARGES


@<TRIPOS>ATOM
   1 C1             0.5223     1.5101     0.0900 C.ar    
   2 C2             0.3498     0.1566     0.1788 C.ar    
   3 C3             1.4006    -0.7082    -0.1131 C.ar    
   4 C4             2.6371    -0.2095    -0.4975 C.ar    
   5 C5             2.8245     1.1576    -0.5912 C.ar    
   6 C6             1.7589     2.0250    -0.2954 C.ar    
   7 C7             1.9909     3.4762    -0.4042 C.2     
   8 O8             4.0154     1.6824    -0.9631 O.3     
   9 C9             4.1928     3.0086    -1.0531 C.2     
  10 N10            3.2194     3.8938    -0.7840 N.am    
  11 O11            1.1052     4.2729    -0.1604 O.2     
  12 O12            5.2820     3.4276    -1.3911 O.2     
  13 C13            3.4915     5.3282    -0.9044 C.3     
  14 C14            3.9929     5.8569     0.4147 C.ar    
  15 C15            5.3162     5.6763     0.7733 C.ar    
  16 C16            3.1308     6.5271     1.2632 C.ar    
  17 C17            3.5870     7.0145     2.4740 C.ar    
  18 C18            4.9065     6.8337     2.8411 C.ar    
  19 C19            5.7771     6.1653     1.9910 C.ar    
  20 O20            1.2145    -2.0499    -0.0205 O.3     
  21 C21            1.7318    -2.6644     1.0558 C.2     
  22 O22            2.2490    -2.0135     1.9326 O.2     
  23 F23            6.1597     5.0257    -0.0575 F       
  24 N24            7.1146     5.9854     2.3575 N.am    
  25 S25            7.5110     5.7303     3.9450 S.o     
  26 O26            7.0723     4.3983     4.1740 O.2     
  27 O27            9.0258     5.5891     3.9012 O.3     
  28 N28            9.6393     5.3512     5.2079 N.3     
  29 C29           11.0981     5.2257     5.0896 C.3     
  30 C30            1.6672    -4.1657     1.1700 C.3     
  31 C31            2.3225    -4.6062     2.4804 C.3     
  32 C32            2.2569    -6.1304     2.5963 C.3     
  33 H33           -0.2973     2.1772     0.3131 H       
  34 H34           -0.6076    -0.2440     0.4776 H       
  35 H35            3.4490    -0.8853    -0.7221 H       
  36 H36            4.2477     5.4914    -1.6723 H       
  37 H37            2.5751     5.8500    -1.1802 H       
  38 H38            2.0987     6.6705     0.9791 H       
  39 H39            2.9108     7.5378     3.1338 H       
  40 H40            5.2615     7.2153     3.7871 H       
  41 H41            7.8102     6.0100     1.6818 H       
  42 H42            9.3908     6.0784     5.8618 H       
  43 H43           11.3387     4.3895     4.4331 H       
  44 H44           11.5093     6.1450     4.6726 H       
  45 H45           11.5287     5.0493     6.0753 H       
  46 H46            0.6255    -4.4864     1.1589 H       
  47 H47            2.1952    -4.6170     0.3300 H       
  48 H48            3.3642    -4.2855     2.4915 H       
  49 H49            1.7945    -4.1548     3.3204 H       
  50 H50            2.7850    -6.5817     1.7563 H       
  51 H51            2.7238    -6.4442     3.5299 H       
  52 H52            1.2152    -6.4511     2.5853 H       
@<TRIPOS>BOND
   1    1    2 ar
   2    1    6 ar
   3    1   33 1
   4    2    3 ar
   5    2   34 1
   6    3    4 ar
   7    3   20 1
   8    4    5 ar
   9    4   35 1
  10    5    6 ar
  11    5    8 1
  12    6    7 1
  13    7   10 am
  14    7   11 2
  15    8    9 1
  16    9   10 am
  17    9   12 2
  18   10   13 1
  19   13   14 1
  20   13   36 1
  21   13   37 1
  22   14   16 ar
  23   14   15 ar
  24   15   19 ar
  25   15   23 1
  26   16   17 ar
  27   16   38 1
  28   17   18 ar
  29   17   39 1
  30   18   19 ar
  31   18   40 1
  32   19   24 1
  33   20   21 1
  34   21   22 2
  35   21   30 1
  36   24   25 am
  37   24   41 1
  38   25   26 2
  39   25   27 1
  40   27   28 1
  41   28   29 1
  42   28   42 1
  43   29   43 1
  44   29   44 1
  45   29   45 1
  46   30   31 1
  47   30   46 1
  48   30   47 1
  49   31   32 1
  50   31   48 1
  51   31   49 1
  52   32   50 1
  53   32   51 1
  54   32   52 1

#	End of record

