#	Name: ASD04590314
#	Creating user name:	WinNT
#	Creation time:	15. 06. 2019 20:50

#	Modifying user name:	WinNT
#	Modification time:	15. 06. 2019 20:50

#	Program:	/corina/corina34_cracker 3.40 0067  02.08.2006

@<TRIPOS>MOLECULE
ASD04590314
  39   42    0    0    0
SMALL
NO_CHARGES


@<TRIPOS>ATOM
   1 C1            -0.0167     1.3773     0.0096 C.ar    
   2 C2             0.0021    -0.0041     0.0020 C.ar    
   3 C3             1.2145    -0.6920    -0.0128 C.ar    
   4 C4             2.4251     0.0357    -0.0205 C.ar    
   5 C5             2.3828     1.4413    -0.0130 C.ar    
   6 C6             1.1627     2.0989     0.0022 C.ar    
   7 N7             3.7199    -0.3267    -0.0349 N.2     
   8 C8             4.4812     0.7436    -0.0370 C.2     
   9 N9             3.6991     1.8654    -0.0237 N.pl3   
  10 C10            5.9579     0.7366    -0.0504 C.2     
  11 C11            6.7840    -0.4114    -0.0636 C.2     
  12 C12            8.0731     0.0072    -0.0737 C.2     
  13 N13            8.0700     1.3662    -0.0672 N.pl3   
  14 N14            6.7384     1.7999    -0.0579 N.2     
  15 N15            6.3469    -1.7457    -0.0658 N.am    
  16 C16            7.2463    -2.7494    -0.0791 C.2     
  17 C17            6.7871    -4.1514    -0.0814 C.ar    
  18 O18            8.4364    -2.4993    -0.0890 O.2     
  19 C19            6.1213    -6.1259    -1.2847 C.ar    
  20 C20            5.9240    -6.7868    -0.0859 C.ar    
  21 C21            6.1492    -6.1392     1.1153 C.ar    
  22 C22            6.5795    -4.8257     1.1267 C.ar    
  23 C23            6.5513    -4.8124    -1.2917 C.ar    
  24 F24            6.7430    -4.1685    -2.4639 F       
  25 F25            6.7993    -4.1950     2.3011 F       
  26 C26            1.2330    -2.1636    -0.0199 C.2     
  27 O27            0.0742    -2.8522    -0.0121 O.3     
  28 O28            2.2930    -2.7580    -0.0329 O.2     
  29 H29           -0.9623     1.8989     0.0169 H       
  30 H30           -0.9275    -0.5539     0.0080 H       
  31 H31            1.1332     3.1784     0.0076 H       
  32 H32            4.0090     2.7846    -0.0224 H       
  33 H33            8.9474    -0.6267    -0.0846 H       
  34 H34            8.8543     1.9370    -0.0716 H       
  35 H35            5.3977    -1.9452    -0.0579 H       
  36 H36            5.9434    -6.6392    -2.2181 H       
  37 H37            5.5875    -7.8130    -0.0876 H       
  38 H38            5.9924    -6.6625     2.0469 H       
  39 H39            0.1369    -3.8172    -0.0172 H       
@<TRIPOS>BOND
   1    1    2 ar
   2    1    6 ar
   3    1   29 1
   4    2    3 ar
   5    2   30 1
   6    3    4 ar
   7    3   26 1
   8    4    5 ar
   9    4    7 1
  10    5    6 ar
  11    5    9 1
  12    6   31 1
  13    7    8 2
  14    8    9 1
  15    8   10 1
  16    9   32 1
  17   10   11 1
  18   10   14 2
  19   11   12 2
  20   11   15 1
  21   12   13 1
  22   12   33 1
  23   13   14 1
  24   13   34 1
  25   15   16 am
  26   15   35 1
  27   16   17 1
  28   16   18 2
  29   17   22 ar
  30   17   23 ar
  31   19   20 ar
  32   19   23 ar
  33   19   36 1
  34   20   21 ar
  35   20   37 1
  36   21   22 ar
  37   21   38 1
  38   22   25 1
  39   23   24 1
  40   26   27 1
  41   26   28 2
  42   27   39 1

#	End of record

