#	Name: ASD07930889
#	Creating user name:	WinNT
#	Creation time:	15. 06. 2019 21:13

#	Modifying user name:	WinNT
#	Modification time:	15. 06. 2019 21:13

#	Program:	/corina/corina34_cracker 3.40 0067  02.08.2006

@<TRIPOS>MOLECULE
ASD07930889
  56   60    0    0    0
SMALL
NO_CHARGES


@<TRIPOS>ATOM
   1 N1            -0.1866     1.6072    -0.0370 N.2     
   2 C2            -0.2568     0.3196     0.1369 C.2     
   3 N3             0.8345    -0.4633     0.3271 N.am    
   4 C4             2.0741     0.0794     0.3439 C.2     
   5 C5             2.1800     1.5311     0.1493 C.ar    
   6 C6             3.4211     2.1866     0.1500 C.ar    
   7 C7             3.5085     3.5259    -0.0308 C.ar    
   8 C8             2.3541     4.3125    -0.2266 C.ar    
   9 C9             1.0767     3.7008    -0.2360 C.ar    
  10 C10            0.9896     2.2566    -0.0402 C.ar    
  11 C11           -0.0646     4.4854    -0.4301 C.ar    
  12 C12            0.0633     5.8320    -0.6083 C.ar    
  13 C13            1.3164     6.4361    -0.5996 C.ar    
  14 C14            2.4484     5.7002    -0.4130 C.ar    
  15 O15            3.0637    -0.6097     0.5142 O.2     
  16 C16            4.8626     4.1874    -0.0220 C.3     
  17 C17            5.9087     3.8441     2.1988 C.2     
  18 C18            5.1898     4.6435     1.3765 C.2     
  19 C19            4.7503     5.8963     1.8268 C.2     
  20 C20            5.0557     6.2937     3.0953 C.2     
  21 C21            5.8039     5.4389     3.9226 C.2     
  22 N22            6.2121     4.2416     3.4610 N.am    
  23 O23            6.0842     5.7820     5.0600 O.2     
  24 C24            6.9915     3.3574     4.3310 C.3     
  25 C25            0.6699    -1.9067     0.5161 C.3     
  26 C26           -0.1937    -2.1639     1.7526 C.3     
  27 C27           -0.3655    -3.6713     1.9501 C.3     
  28 C28           -1.0459    -4.2727     0.7187 C.3     
  29 C29           -0.1824    -4.0155    -0.5178 C.3     
  30 C30           -0.0105    -2.5080    -0.7152 C.3     
  31 O31            0.4419    -1.6022     2.9027 O.3     
  32 H32           -1.2303    -0.1480     0.1299 H       
  33 H33            4.3235     1.6120     0.2978 H       
  34 H34           -1.0427     4.0274    -0.4392 H       
  35 H35           -0.8191     6.4364    -0.7584 H       
  36 H36            1.3934     7.5038    -0.7431 H       
  37 H37            3.4143     6.1833    -0.4084 H       
  38 H38            5.6168     3.4758    -0.3580 H       
  39 H39            4.8510     5.0477    -0.6913 H       
  40 H40            6.2410     2.8781     1.8485 H       
  41 H41            4.1765     6.5398     1.1762 H       
  42 H42            4.7262     7.2554     3.4601 H       
  43 H43            8.0537     3.5660     4.2032 H       
  44 H44            6.7099     3.5293     5.3699 H       
  45 H45            6.7909     2.3190     4.0672 H       
  46 H46            1.6475    -2.3689     0.6531 H       
  47 H47           -1.1712    -1.7016     1.6156 H       
  48 H48            0.6121    -4.1336     2.0871 H       
  49 H49           -0.9807    -3.8546     2.8310 H       
  50 H50           -1.1684    -5.3466     0.8594 H       
  51 H51           -2.0235    -3.8104     0.5817 H       
  52 H52            0.7952    -4.4777    -0.3808 H       
  53 H53           -0.6671    -4.4439    -1.3950 H       
  54 H54           -0.9881    -2.0457    -0.8523 H       
  55 H55            0.6047    -2.3248    -1.5962 H       
  56 H56           -0.0510    -1.7279     3.7251 H       
@<TRIPOS>BOND
   1    1    2 2
   2    1   10 1
   3    2    3 1
   4    2   32 1
   5    3    4 am
   6    3   25 1
   7    4    5 1
   8    4   15 2
   9    5    6 ar
  10    5   10 ar
  11    6    7 ar
  12    6   33 1
  13    7    8 ar
  14    7   16 1
  15    8    9 ar
  16    8   14 ar
  17    9   10 ar
  18    9   11 ar
  19   11   12 ar
  20   11   34 1
  21   12   13 ar
  22   12   35 1
  23   13   14 ar
  24   13   36 1
  25   14   37 1
  26   16   18 1
  27   16   38 1
  28   16   39 1
  29   17   18 2
  30   17   22 1
  31   17   40 1
  32   18   19 1
  33   19   20 2
  34   19   41 1
  35   20   21 1
  36   20   42 1
  37   21   22 am
  38   21   23 2
  39   22   24 1
  40   24   43 1
  41   24   44 1
  42   24   45 1
  43   25   26 1
  44   25   30 1
  45   25   46 1
  46   26   27 1
  47   26   31 1
  48   26   47 1
  49   27   28 1
  50   27   48 1
  51   27   49 1
  52   28   29 1
  53   28   50 1
  54   28   51 1
  55   29   30 1
  56   29   52 1
  57   29   53 1
  58   30   54 1
  59   30   55 1
  60   31   56 1

#	End of record

