#	Name: ASD01028819
#	Creating user name:	WinNT
#	Creation time:	15. 06. 2019 18:58

#	Modifying user name:	WinNT
#	Modification time:	15. 06. 2019 18:58

#	Program:	/corina/corina34_cracker 3.40 0067  02.08.2006

@<TRIPOS>MOLECULE
ASD01028819
  36   39    0    0    0
SMALL
NO_CHARGES


@<TRIPOS>ATOM
   1 N1            -0.0157     1.3086     0.0092 N.ar    
   2 C2             0.0021    -0.0041     0.0020 C.ar    
   3 C3             1.1929    -0.7180    -0.0127 C.ar    
   4 C4             2.4010    -0.0409    -0.0206 C.ar    
   5 C5             2.3699     1.3759    -0.0131 C.ar    
   6 N6             3.4972     2.0878    -0.0196 N.ar    
   7 C7             3.4806     3.3981    -0.0124 C.ar    
   8 C8             2.2786     4.1130     0.0024 C.ar    
   9 C9             1.0780     3.4323     0.0097 C.ar    
  10 C10            1.1130     2.0256     0.0023 C.ar    
  11 N11            3.6056    -0.7290    -0.0349 N.pl3   
  12 O12            2.2928     5.4715     0.0099 O.3     
  13 C13            3.5727     6.1070     0.0021 C.3     
  14 C14            3.6123    -2.1940    -0.0419 C.3     
  15 C15            7.0119    -3.3792     0.5383 C.2     
  16 C16            8.0291    -3.7345     1.4429 C.2     
  17 C17            7.7840    -3.6508     2.7792 C.2     
  18 C18            6.5328    -3.2157     3.2404 C.2     
  19 N19            5.5846    -2.8846     2.4028 N.2     
  20 N20            5.7977    -2.9570     1.0248 N.pl3   
  21 N21            5.7562    -2.9369    -1.1227 N.2     
  22 N22            6.9293    -3.3432    -0.7817 N.2     
  23 C23            5.0353    -2.6897    -0.0573 C.2     
  24 Cl24           6.2385    -3.1154     4.9483 Cl      
  25 H25           -0.9340    -0.5427     0.0081 H       
  26 H26            1.1771    -1.7979    -0.0177 H       
  27 H27            4.4160     3.9379    -0.0177 H       
  28 H28            0.1381     3.9642     0.0211 H       
  29 H29            4.4433    -0.2401    -0.0403 H       
  30 H30            4.1186     5.8134    -0.8944 H       
  31 H31            3.4411     7.1890     0.0094 H       
  32 H32            4.1345     5.8033     0.8854 H       
  33 H33            3.1083    -2.5639     0.8510 H       
  34 H34            3.0920    -2.5555    -0.9289 H       
  35 H35            8.9905    -4.0691     1.0822 H       
  36 H36            8.5546    -3.9204     3.4861 H       
@<TRIPOS>BOND
   1    1    2 ar
   2    1   10 ar
   3    2    3 ar
   4    2   25 1
   5    3    4 ar
   6    3   26 1
   7    4    5 ar
   8    4   11 1
   9    5    6 ar
  10    5   10 ar
  11    6    7 ar
  12    7    8 ar
  13    7   27 1
  14    8    9 ar
  15    8   12 1
  16    9   10 ar
  17    9   28 1
  18   11   14 1
  19   11   29 1
  20   12   13 1
  21   13   30 1
  22   13   31 1
  23   13   32 1
  24   14   23 1
  25   14   33 1
  26   14   34 1
  27   15   16 1
  28   15   20 1
  29   15   22 2
  30   16   17 2
  31   16   35 1
  32   17   18 1
  33   17   36 1
  34   18   19 2
  35   18   24 1
  36   19   20 1
  37   20   23 1
  38   21   22 1
  39   21   23 2

#	End of record

