#	Name: ASD01813007
#	Creating user name:	WinNT
#	Creation time:	15. 06. 2019 19:29

#	Modifying user name:	WinNT
#	Modification time:	15. 06. 2019 19:29

#	Program:	/corina/corina34_cracker 3.40 0067  02.08.2006

@<TRIPOS>MOLECULE
ASD01813007
  47   50    0    0    0
SMALL
NO_CHARGES


@<TRIPOS>ATOM
   1 C1            -0.0389     1.3765    -0.2112 C.2     
   2 C2            -0.0177    -0.0024    -0.2099 C.2     
   3 N3            -1.1549    -0.6981    -0.0021 N.pl3   
   4 C4            -2.3481    -0.1287     0.2195 C.2     
   5 C5            -2.5048     1.2407     0.2495 C.2     
   6 C6            -1.3124     2.0765     0.0226 C.2     
   7 O7            -1.3765     3.2939     0.0354 O.2     
   8 C8            -1.0815    -2.1611    -0.0201 C.3     
   9 C9            -0.9274    -2.6738     1.3886 C.ar    
  10 C10           -2.0463    -2.9691     2.1403 C.ar    
  11 C11           -1.9023    -3.4435     3.4427 C.ar    
  12 C12           -0.6280    -3.6170     3.9785 C.ar    
  13 C13            0.4844    -3.3185     3.2176 C.ar    
  14 C14            0.3357    -2.8529     1.9238 C.ar    
  15 C15            1.1855     2.1480    -0.4475 C.2     
  16 C16            2.5041     1.4022    -0.4298 C.3     
  17 C17            2.2886     0.0812    -1.1808 C.3     
  18 C18            1.2634    -0.7642    -0.4306 C.3     
  19 O19            1.1439     3.3434    -0.6509 O.2     
  20 C20           -3.1018    -3.7623     4.2560 C.ar    
  21 C21           -2.9578    -4.2366     5.5582 C.ar    
  22 C22           -4.0769    -4.5316     6.3102 C.ar    
  23 C23           -5.3397    -4.3575     5.7733 C.ar    
  24 C24           -5.4885    -3.8869     4.4811 C.ar    
  25 C25           -4.3763    -3.5829     3.7223 C.ar    
  26 C26           -3.8220     1.8486     0.4952 C.2     
  27 O27           -4.7937     1.1411     0.6758 O.2     
  28 O28           -3.9512     3.1900     0.5200 O.3     
  29 H29           -3.2100    -0.7598     0.3786 H       
  30 H30           -1.9951    -2.5654    -0.4560 H       
  31 H31           -0.2247    -2.4746    -0.6166 H       
  32 H32           -3.0318    -2.8324     1.7202 H       
  33 H33           -0.5107    -3.9840     4.9874 H       
  34 H34            1.4727    -3.4522     3.6320 H       
  35 H35            1.2087    -2.6209     1.3318 H       
  36 H36            3.2713     1.9928    -0.9304 H       
  37 H37            2.8024     1.1999     0.5989 H       
  38 H38            1.9226     0.2897    -2.1862 H       
  39 H39            3.2323    -0.4608    -1.2418 H       
  40 H40            1.6775    -1.0537     0.5352 H       
  41 H41            1.0491    -1.6625    -1.0097 H       
  42 H42           -1.9723    -4.3736     5.9782 H       
  43 H43           -3.9664    -4.8993     7.3197 H       
  44 H44           -6.2127    -4.5902     6.3649 H       
  45 H45           -6.4768    -3.7528     4.0667 H       
  46 H46           -4.4936    -3.2156     2.7135 H       
  47 H47           -4.8362     3.5428     0.6851 H       
@<TRIPOS>BOND
   1    1    2 2
   2    1   15 1
   3    1    6 1
   4    2    3 1
   5    2   18 1
   6    3    4 1
   7    3    8 1
   8    4    5 2
   9    4   29 1
  10    5    6 1
  11    5   26 1
  12    6    7 2
  13    8    9 1
  14    8   30 1
  15    8   31 1
  16    9   10 ar
  17    9   14 ar
  18   10   11 ar
  19   10   32 1
  20   11   12 ar
  21   11   20 1
  22   12   13 ar
  23   12   33 1
  24   13   14 ar
  25   13   34 1
  26   14   35 1
  27   15   16 1
  28   15   19 2
  29   16   17 1
  30   16   36 1
  31   16   37 1
  32   17   18 1
  33   17   38 1
  34   17   39 1
  35   18   40 1
  36   18   41 1
  37   20   21 ar
  38   20   25 ar
  39   21   22 ar
  40   21   42 1
  41   22   23 ar
  42   22   43 1
  43   23   24 ar
  44   23   44 1
  45   24   25 ar
  46   24   45 1
  47   25   46 1
  48   26   27 2
  49   26   28 1
  50   28   47 1

#	End of record

