#	Name: ASD01150977
#	Creating user name:	WinNT
#	Creation time:	15. 06. 2019 19:05

#	Modifying user name:	WinNT
#	Modification time:	15. 06. 2019 19:05

#	Program:	/corina/corina34_cracker 3.40 0067  02.08.2006

@<TRIPOS>MOLECULE
ASD01150977
  32   33    0    0    0
SMALL
NO_CHARGES


@<TRIPOS>ATOM
   1 C1            -0.0155     1.2927     0.0091 C.2     
   2 N2             0.0021    -0.0041     0.0020 N.2     
   3 C3            -1.2845    -0.4579     0.0119 C.2     
   4 C4            -2.1017     0.6620     0.0257 C.2     
   5 O5            -1.2851     1.7307     0.0295 O.3     
   6 C6             1.2056     2.1758     0.0022 C.3     
   7 N7            -3.4778     0.6771     0.0389 N.pl3   
   8 C8            -1.7179    -1.8556     0.0081 C.2     
   9 O9            -2.9043    -2.1246     0.0175 O.2     
  10 O10           -0.8018    -2.8459    -0.0060 O.3     
  11 C11           -1.2958    -4.1867    -0.0089 C.3     
  12 C12           -0.1187    -5.1640    -0.0252 C.3     
  13 C13            1.1973     3.0771    -1.2449 C.3     
  14 C14            1.1719     4.5332    -0.7361 C.3     
  15 C15            1.7680     4.4474     0.6909 C.3     
  16 C16            1.1850     3.1157     1.2254 C.3     
  17 H17            2.1081     1.5647     0.0152 H       
  18 H18           -3.9720    -0.1575     0.0391 H       
  19 H19           -3.9535     1.5224     0.0479 H       
  20 H20           -1.8954    -4.3550     0.8858 H       
  21 H21           -1.9118    -4.3450    -0.8941 H       
  22 H22            0.4973    -5.0056     0.8600 H       
  23 H23           -0.4956    -6.1867    -0.0275 H       
  24 H24            0.4808    -4.9957    -0.9199 H       
  25 H25            2.0961     2.9040    -1.8367 H       
  26 H26            0.3100     2.8758    -1.8451 H       
  27 H27            1.7895     5.1696    -1.3699 H       
  28 H28            0.1486     4.9070    -0.7002 H       
  29 H29            2.8565     4.4050     0.6529 H       
  30 H30            1.4341     5.2873     1.3001 H       
  31 H31            0.1639     3.2605     1.5780 H       
  32 H32            1.8122     2.7175     2.0230 H       
@<TRIPOS>BOND
   1    1    2 2
   2    1    6 1
   3    1    5 1
   4    2    3 1
   5    3    4 2
   6    3    8 1
   7    4    5 1
   8    4    7 1
   9    6   13 1
  10    6   16 1
  11    6   17 1
  12    7   18 1
  13    7   19 1
  14    8    9 2
  15    8   10 1
  16   10   11 1
  17   11   12 1
  18   11   20 1
  19   11   21 1
  20   12   22 1
  21   12   23 1
  22   12   24 1
  23   13   14 1
  24   13   25 1
  25   13   26 1
  26   14   15 1
  27   14   27 1
  28   14   28 1
  29   15   16 1
  30   15   29 1
  31   15   30 1
  32   16   31 1
  33   16   32 1

#	End of record

