#	Name: ASD01883842
#	Creating user name:	WinNT
#	Creation time:	15. 06. 2019 19:47

#	Modifying user name:	WinNT
#	Modification time:	15. 06. 2019 19:47

#	Program:	/corina/corina34_cracker 3.40 0067  02.08.2006

@<TRIPOS>MOLECULE
ASD01883842
  42   43    0    0    0
SMALL
NO_CHARGES


@<TRIPOS>ATOM
   1 C1            -0.0170     1.4016     0.0097 C.2     
   2 C2             0.0021    -0.0041     0.0020 C.2     
   3 C3            -1.2242    -0.6972     0.0105 C.2     
   4 C4            -2.3887    -0.0097     0.0258 C.2     
   5 N5            -2.4082     1.3478     0.0332 N.am    
   6 C6            -1.2690     2.0646     0.0312 C.2     
   7 O7            -1.3145     3.2829     0.0381 O.2     
   8 C8            -3.6956     2.0468     0.0498 C.3     
   9 C9             1.2048     2.1485     0.0021 C.1     
  10 N10            2.1740     2.7410    -0.0040 N.1     
  11 C11            1.2837    -0.7402    -0.0152 C.ar    
  12 C12           -4.1294     2.2824     1.4980 C.3     
  13 C13           -5.4739     3.0124     1.5153 C.3     
  14 C14           -6.5520     2.1100     0.9115 C.3     
  15 C15           -5.8478     3.3585     2.9579 C.3     
  16 C16            1.7239    -1.3545    -1.1904 C.ar    
  17 C17            2.9278    -2.0433    -1.1977 C.ar    
  18 C18            3.6900    -2.1210    -0.0407 C.ar    
  19 C19            3.2540    -1.5123     1.1244 C.ar    
  20 C20            2.0623    -0.8197     1.1421 C.ar    
  21 Br21           5.3300    -3.0622    -0.0548 Br      
  22 F22            0.9796    -1.2781    -2.3152 F       
  23 O23            3.3610    -2.6430    -2.3387 O.3     
  24 C24            4.1769    -1.8609    -3.2131 C.3     
  25 H25           -1.2344    -1.7771     0.0044 H       
  26 H26           -3.3227    -0.5520     0.0318 H       
  27 H27           -3.5954     3.0050    -0.4599 H       
  28 H28           -4.4446     1.4408    -0.4599 H       
  29 H29           -4.2297     1.3241     2.0077 H       
  30 H30           -3.3804     2.8884     2.0076 H       
  31 H31           -5.3974     3.9287     0.9299 H       
  32 H32           -7.5098     2.6301     0.9238 H       
  33 H33           -6.2856     1.8634    -0.1163 H       
  34 H34           -6.6285     1.1937     1.4968 H       
  35 H35           -5.0798     4.0013     3.3881 H       
  36 H36           -6.8057     3.8785     2.9703 H       
  37 H37           -5.9243     2.4421     3.5433 H       
  38 H38            3.8520    -1.5770     2.0214 H       
  39 H39            1.7260    -0.3465     2.0528 H       
  40 H40            5.0783    -1.5482    -2.6862 H       
  41 H41            4.4528    -2.4572    -4.0828 H       
  42 H42            3.6218    -0.9806    -3.5375 H       
@<TRIPOS>BOND
   1    1    2 2
   2    1    9 1
   3    1    6 1
   4    2    3 1
   5    2   11 1
   6    3    4 2
   7    3   25 1
   8    4    5 1
   9    4   26 1
  10    5    6 am
  11    5    8 1
  12    6    7 2
  13    8   12 1
  14    8   27 1
  15    8   28 1
  16    9   10 3
  17   11   16 ar
  18   11   20 ar
  19   12   13 1
  20   12   29 1
  21   12   30 1
  22   13   14 1
  23   13   15 1
  24   13   31 1
  25   14   32 1
  26   14   33 1
  27   14   34 1
  28   15   35 1
  29   15   36 1
  30   15   37 1
  31   16   17 ar
  32   16   22 1
  33   17   18 ar
  34   17   23 1
  35   18   19 ar
  36   18   21 1
  37   19   20 ar
  38   19   38 1
  39   20   39 1
  40   23   24 1
  41   24   40 1
  42   24   41 1
  43   24   42 1

#	End of record

