#	Name: ASD00190090
#	Creating user name:	WinNT
#	Creation time:	15. 06. 2019 18:33

#	Modifying user name:	WinNT
#	Modification time:	15. 06. 2019 18:33

#	Program:	/corina/corina34_cracker 3.40 0067  02.08.2006

@<TRIPOS>MOLECULE
ASD00190090
  33   35    0    0    0
SMALL
NO_CHARGES


@<TRIPOS>ATOM
   1 C1            -0.0169     1.3976     0.0097 C.ar    
   2 C2             0.0021    -0.0041     0.0020 C.ar    
   3 N3             1.1793    -0.6333    -0.0126 N.ar    
   4 C4             2.3093     0.0545    -0.0197 C.ar    
   5 N5             2.3190     1.3801    -0.0127 N.ar    
   6 C6             1.1897     2.0717     0.0018 C.ar    
   7 N7             3.5135    -0.6280    -0.0344 N.pl3   
   8 C8            -1.2549    -0.7692     0.0104 C.2     
   9 C9            -1.2238    -2.1140     0.0029 C.2     
  10 C10           -2.4805    -2.8790     0.0112 C.ar    
  11 C11           -2.4485    -4.2783     0.0034 C.ar    
  12 C12           -3.6153    -4.9876     0.0117 C.ar    
  13 C13           -4.8419    -4.3164     0.0279 C.ar    
  14 C14           -4.8746    -2.9185     0.0353 C.ar    
  15 C15           -3.7086    -2.2079     0.0329 C.ar    
  16 C16           -6.1023    -5.0837     0.0369 C.2     
  17 C17           -7.3576    -4.5579     0.0526 C.2     
  18 C18           -8.2527    -5.6452     0.0561 C.2     
  19 C19           -7.5090    -6.7694     0.0424 C.2     
  20 O20           -6.2108    -6.4265     0.0249 O.3     
  21 H21           -0.9521     1.9379     0.0171 H       
  22 H22            1.2113     3.1515     0.0071 H       
  23 H23            3.5211    -1.5980    -0.0394 H       
  24 H24            4.3496    -0.1364    -0.0397 H       
  25 H25           -2.2024    -0.2510     0.0226 H       
  26 H26           -0.2762    -2.6322    -0.0093 H       
  27 H27           -1.5012    -4.7969    -0.0095 H       
  28 H28           -3.5908    -6.0673     0.0053 H       
  29 H29           -5.8223    -2.4008     0.0471 H       
  30 H30           -3.7340    -1.1282     0.0389 H       
  31 H31           -7.6171    -3.5095     0.0609 H       
  32 H32           -9.3312    -5.5890     0.0678 H       
  33 H33           -7.8936    -7.7786     0.0413 H       
@<TRIPOS>BOND
   1    1    2 ar
   2    1    6 ar
   3    1   21 1
   4    2    3 ar
   5    2    8 1
   6    3    4 ar
   7    4    5 ar
   8    4    7 1
   9    5    6 ar
  10    6   22 1
  11    7   23 1
  12    7   24 1
  13    8    9 2
  14    8   25 1
  15    9   10 1
  16    9   26 1
  17   10   11 ar
  18   10   15 ar
  19   11   12 ar
  20   11   27 1
  21   12   13 ar
  22   12   28 1
  23   13   14 ar
  24   13   16 1
  25   14   15 ar
  26   14   29 1
  27   15   30 1
  28   16   17 2
  29   16   20 1
  30   17   18 1
  31   17   31 1
  32   18   19 2
  33   18   32 1
  34   19   20 1
  35   19   33 1

#	End of record

