#	Name: ASD01208883
#	Creating user name:	WinNT
#	Creation time:	15. 06. 2019 19:10

#	Modifying user name:	WinNT
#	Modification time:	15. 06. 2019 19:10

#	Program:	/corina/corina34_cracker 3.40 0067  02.08.2006

@<TRIPOS>MOLECULE
ASD01208883
  64   67    0    0    0
SMALL
NO_CHARGES


@<TRIPOS>ATOM
   1 S1             0.3740     1.7081    -0.9057 S.3     
   2 C2             0.3055    -0.0307    -1.1670 C.2     
   3 N3             1.4566    -0.4501    -1.5869 N.2     
   4 C4             2.4000     0.4872    -1.7230 C.2     
   5 C5             2.0103     1.7387    -1.4007 C.2     
   6 C6             3.7601     0.1781    -2.1883 C.2     
   7 O7             4.5827     1.0668    -2.2950 O.2     
   8 O8             4.0949    -1.0909    -2.4967 O.3     
   9 C9            -1.9587    -0.2794    -0.5151 C.2     
  10 C10           -3.1465    -1.1299    -0.2897 C.ar    
  11 C11           -4.3372    -0.5625     0.1662 C.ar    
  12 C12           -5.4477    -1.3630     0.3761 C.ar    
  13 C13           -5.3776    -2.7274     0.1342 C.ar    
  14 C14           -4.1957    -3.2959    -0.3187 C.ar    
  15 C15           -3.0820    -2.5013    -0.5377 C.ar    
  16 O16           -2.0182     0.9161    -0.3032 O.2     
  17 N17           -0.8097    -0.8293    -0.9554 N.am    
  18 O18           -4.1323    -4.6328    -0.5537 O.3     
  19 C19           -3.5091    -5.4131     0.3669 C.ar    
  20 C20           -3.3768    -6.7777     0.1428 C.ar    
  21 C21           -2.7451    -7.5727     1.0745 C.ar    
  22 C22           -2.2374    -7.0049     2.2447 C.ar    
  23 C23           -2.3720    -5.6329     2.4662 C.ar    
  24 C24           -3.0006    -4.8437     1.5275 C.ar    
  25 O25           -1.0253    -7.4422     4.4136 O.3     
  26 C26           -1.5598    -7.8540     3.2465 C.2     
  27 N27           -1.3661    -9.1499     3.1659 N.2     
  28 N28           -0.7438    -9.5520     4.2177 N.2     
  29 C29           -0.5174    -8.5378     5.0047 C.2     
  30 C30            0.1869    -8.5848     6.3362 C.3     
  31 O31           -6.6077    -0.8113     0.8201 O.3     
  32 C32           -8.6101    -1.0563     2.1508 C.3     
  33 C33           -7.6760    -1.7085     1.1295 C.3     
  34 C34           -8.4585    -2.0287    -0.1457 C.3     
  35 O35           -9.2346     0.0869     1.5633 O.3     
  36 C36          -10.1322     0.7728     2.4384 C.3     
  37 C37            5.4549    -1.3224    -2.9494 C.3     
  38 C38            5.6462    -2.8105    -3.2496 C.3     
  39 H39            2.6333     2.6197    -1.4481 H       
  40 H40           -4.3925     0.4993     0.3555 H       
  41 H41           -6.2453    -3.3488     0.2993 H       
  42 H42           -2.1639    -2.9437    -0.8951 H       
  43 H43           -0.7622    -1.7833    -1.1245 H       
  44 H44           -3.7698    -7.2161    -0.7626 H       
  45 H45           -2.6432    -8.6336     0.8999 H       
  46 H46           -1.9809    -5.1902     3.3703 H       
  47 H47           -3.1018    -3.7817     1.6963 H       
  48 H48           -0.5425    -8.7596     7.1271 H       
  49 H49            0.9187    -9.3926     6.3319 H       
  50 H50            0.6940    -7.6362     6.5127 H       
  51 H51           -9.3741    -1.7723     2.4535 H       
  52 H52           -8.0351    -0.7477     3.0239 H       
  53 H53           -7.2680    -2.6293     1.5463 H       
  54 H54           -7.7931    -2.4933    -0.8733 H       
  55 H55           -9.2735    -2.7130     0.0903 H       
  56 H56           -8.8665    -1.1079    -0.5625 H       
  57 H57          -10.9278     0.0948     2.7471 H       
  58 H58           -9.5888     1.1194     3.3175 H       
  59 H59          -10.5646     1.6275     1.9182 H       
  60 H60            5.6406    -0.7426    -3.8535 H       
  61 H61            6.1540    -1.0160    -2.1713 H       
  62 H62            6.6672    -2.9842    -3.5895 H       
  63 H63            5.4606    -3.3903    -2.3455 H       
  64 H64            4.9471    -3.1169    -4.0277 H       
@<TRIPOS>BOND
   1    1    2 1
   2    1    5 1
   3    2    3 2
   4    2   17 1
   5    3    4 1
   6    4    5 2
   7    4    6 1
   8    5   39 1
   9    6    7 2
  10    6    8 1
  11    8   37 1
  12    9   10 1
  13    9   16 2
  14    9   17 am
  15   10   11 ar
  16   10   15 ar
  17   11   12 ar
  18   11   40 1
  19   12   13 ar
  20   12   31 1
  21   13   14 ar
  22   13   41 1
  23   14   15 ar
  24   14   18 1
  25   15   42 1
  26   17   43 1
  27   18   19 1
  28   19   20 ar
  29   19   24 ar
  30   20   21 ar
  31   20   44 1
  32   21   22 ar
  33   21   45 1
  34   22   23 ar
  35   22   26 1
  36   23   24 ar
  37   23   46 1
  38   24   47 1
  39   25   26 1
  40   25   29 1
  41   26   27 2
  42   27   28 1
  43   28   29 2
  44   29   30 1
  45   30   48 1
  46   30   49 1
  47   30   50 1
  48   31   33 1
  49   32   33 1
  50   32   35 1
  51   32   51 1
  52   32   52 1
  53   33   34 1
  54   33   53 1
  55   34   54 1
  56   34   55 1
  57   34   56 1
  58   35   36 1
  59   36   57 1
  60   36   58 1
  61   36   59 1
  62   37   38 1
  63   37   60 1
  64   37   61 1
  65   38   62 1
  66   38   63 1
  67   38   64 1

#	End of record

