#	Name: ASD01470049
#	Creating user name:	WinNT
#	Creation time:	15. 06. 2019 19:21

#	Modifying user name:	WinNT
#	Modification time:	15. 06. 2019 19:21

#	Program:	/corina/corina34_cracker 3.40 0067  02.08.2006

@<TRIPOS>MOLECULE
ASD01470049
  92   99    0    0    0
SMALL
NO_CHARGES


@<TRIPOS>ATOM
   1 N1            -0.8145     1.1871     1.0159 N.am    
   2 C2             0.4709     0.5900     0.6641 C.3     
   3 C3             0.8060    -0.5741     1.6072 C.3     
   4 C4             0.1825    -1.8803     1.1401 C.3     
   5 C5            -1.1282    -1.6421     0.4086 C.3     
   6 N6            -2.0409    -0.8397     1.2239 N.am    
   7 C7            -1.8974     0.4931     1.3276 C.2     
   8 O8            -2.8553     1.1199     1.7371 O.2     
   9 C9            -3.1300    -1.5017     1.9463 C.3     
  10 C10           -0.9099     2.6489     1.0304 C.3     
  11 C11           -0.6632     3.1546     2.4284 C.ar    
  12 C12           -2.6740    -1.8407     3.3420 C.ar    
  13 C13           -2.7155    -0.8867     4.3169 C.ar    
  14 C14           -2.2921    -1.2027     5.6129 C.ar    
  15 C15           -1.8280    -2.5014     5.8969 C.ar    
  16 C16           -1.7975    -3.4543     4.8814 C.ar    
  17 C17           -2.2206    -3.1233     3.6255 C.ar    
  18 C18            0.6309     3.3347     2.8793 C.ar    
  19 C19            0.8584     3.7989     4.1612 C.ar    
  20 C20           -0.2105     4.0834     4.9937 C.ar    
  21 C21           -1.5066     3.9025     4.5409 C.ar    
  22 C22           -1.7317     3.4434     3.2572 C.ar    
  23 C23           -2.2026    -0.4530     6.8616 C.2     
  24 N24           -1.7300    -1.2540     7.7734 N.2     
  25 N25           -1.4874    -2.5172     7.2241 N.pl3   
  26 C26            0.4093     0.0718    -0.7741 C.3     
  27 O27            2.2252    -0.7315     1.6644 O.3     
  28 C28            1.4272     0.7993    -1.6142 C.ar    
  29 C29            2.6789     0.2479    -1.8149 C.ar    
  30 C30            3.6126     0.9152    -2.5854 C.ar    
  31 C31            3.2945     2.1336    -3.1557 C.ar    
  32 C32            2.0425     2.6845    -2.9558 C.ar    
  33 C33            1.1073     2.0152    -2.1889 C.ar    
  34 C34           -1.7831    -2.9891     0.0966 C.3     
  35 O35           -0.0610    -2.7136     2.2752 O.3     
  36 C36           -0.8883    -3.7824    -0.8205 C.ar    
  37 C37            0.1059    -4.5846    -0.2923 C.ar    
  38 C38            0.9268    -5.3122    -1.1335 C.ar    
  39 C39            0.7532    -5.2380    -2.5029 C.ar    
  40 C40           -0.2416    -4.4365    -3.0310 C.ar    
  41 C41           -1.0653    -3.7123    -2.1896 C.ar    
  42 C42           -2.6713     4.2114     5.4460 C.3     
  43 N43           -2.7936     3.1611     6.4600 N.pl3   
  44 C44           -3.8486     3.1802     7.3493 C.2     
  45 N45           -4.0462     2.3059     8.2756 N.2     
  46 C46           -5.1253     2.4608     9.0688 C.ar    
  47 C47           -5.8823     3.5897     8.7424 C.ar    
  48 S48           -5.1097     4.4045     7.3845 S.3     
  49 C49           -5.5566     1.6510    10.1407 C.ar    
  50 C50           -6.6925     1.9712    10.8404 C.ar    
  51 C51           -7.4349     3.0942    10.5058 C.ar    
  52 C52           -7.0329     3.8992     9.4631 C.ar    
  53 F53            0.0107     4.5367     6.2470 F       
  54 H54            1.2510     1.3478     0.7378 H       
  55 H55            0.4333    -0.3405     2.6044 H       
  56 H56            0.8772    -2.3872     0.4704 H       
  57 H57           -0.9275    -1.1186    -0.5262 H       
  58 H58           -3.9905    -0.8346     1.9971 H       
  59 H59           -3.4097    -2.4163     1.4233 H       
  60 H60           -0.1640     3.0685     0.3554 H       
  61 H61           -1.9053     2.9513     0.7051 H       
  62 H62           -3.0727     0.1069     4.0896 H       
  63 H63           -1.4432    -4.4535     5.0873 H       
  64 H64           -2.1955    -3.8656     2.8414 H       
  65 H65            1.4647     3.1124     2.2298 H       
  66 H66            1.8697     3.9392     4.5134 H       
  67 H67           -2.7424     3.3023     2.9038 H       
  68 H68           -2.4789     0.5813     7.0043 H       
  69 H69           -1.1349    -3.2820     7.7056 H       
  70 H70            0.6257    -0.9964    -0.7851 H       
  71 H71           -0.5874     0.2448    -1.1802 H       
  72 H72            2.5183    -1.4497     2.2417 H       
  73 H73            2.9274    -0.7040    -1.3693 H       
  74 H74            4.5907     0.4848    -2.7416 H       
  75 H75            4.0243     2.6552    -3.7572 H       
  76 H76            1.7942     3.6365    -3.4011 H       
  77 H77            0.1292     2.4455    -2.0327 H       
  78 H78           -1.9356    -3.5423     1.0233 H       
  79 H79           -2.7445    -2.8219    -0.3891 H       
  80 H80            0.7347    -2.9366     2.7774 H       
  81 H81            0.2416    -4.6425     0.7776 H       
  82 H82            1.7040    -5.9383    -0.7208 H       
  83 H83            1.3950    -5.8059    -3.1601 H       
  84 H84           -0.3770    -4.3783    -4.1009 H       
  85 H85           -1.8425    -3.0861    -2.6023 H       
  86 H86           -2.5066     5.1714     5.9353 H       
  87 H87           -3.5873     4.2562     4.8569 H       
  88 H88           -2.1330     2.4523     6.5062 H       
  89 H89           -4.9890     0.7732    10.4121 H       
  90 H90           -7.0118     1.3430    11.6588 H       
  91 H91           -8.3279     3.3370    11.0625 H       
  92 H92           -7.6116     4.7735     9.2039 H       
@<TRIPOS>BOND
   1    1    2 1
   2    1   10 1
   3    1    7 am
   4    2    3 1
   5    2   26 1
   6    2   54 1
   7    3    4 1
   8    3   27 1
   9    3   55 1
  10    4    5 1
  11    4   35 1
  12    4   56 1
  13    5    6 1
  14    5   34 1
  15    5   57 1
  16    6    7 am
  17    6    9 1
  18    7    8 2
  19    9   12 1
  20    9   58 1
  21    9   59 1
  22   10   11 1
  23   10   60 1
  24   10   61 1
  25   11   18 ar
  26   11   22 ar
  27   12   13 ar
  28   12   17 ar
  29   13   14 ar
  30   13   62 1
  31   14   15 ar
  32   14   23 1
  33   15   16 ar
  34   15   25 1
  35   16   17 ar
  36   16   63 1
  37   17   64 1
  38   18   19 ar
  39   18   65 1
  40   19   20 ar
  41   19   66 1
  42   20   21 ar
  43   20   53 1
  44   21   22 ar
  45   21   42 1
  46   22   67 1
  47   23   24 2
  48   23   68 1
  49   24   25 1
  50   25   69 1
  51   26   28 1
  52   26   70 1
  53   26   71 1
  54   27   72 1
  55   28   29 ar
  56   28   33 ar
  57   29   30 ar
  58   29   73 1
  59   30   31 ar
  60   30   74 1
  61   31   32 ar
  62   31   75 1
  63   32   33 ar
  64   32   76 1
  65   33   77 1
  66   34   36 1
  67   34   78 1
  68   34   79 1
  69   35   80 1
  70   36   37 ar
  71   36   41 ar
  72   37   38 ar
  73   37   81 1
  74   38   39 ar
  75   38   82 1
  76   39   40 ar
  77   39   83 1
  78   40   41 ar
  79   40   84 1
  80   41   85 1
  81   42   43 1
  82   42   86 1
  83   42   87 1
  84   43   44 1
  85   43   88 1
  86   44   45 2
  87   44   48 1
  88   45   46 1
  89   46   47 ar
  90   46   49 ar
  91   47   48 1
  92   47   52 ar
  93   49   50 ar
  94   49   89 1
  95   50   51 ar
  96   50   90 1
  97   51   52 ar
  98   51   91 1
  99   52   92 1

#	End of record

