#	Name: ASD01881912
#	Creating user name:	WinNT
#	Creation time:	15. 06. 2019 19:43

#	Modifying user name:	WinNT
#	Modification time:	15. 06. 2019 19:43

#	Program:	/corina/corina34_cracker 3.40 0067  02.08.2006

@<TRIPOS>MOLECULE
ASD01881912
  47   50    0    0    0
SMALL
NO_CHARGES


@<TRIPOS>ATOM
   1 N1            -0.1239     1.4331     0.0631 N.3     
   2 C2            -1.0735     1.2017     1.1590 C.3     
   3 C3            -0.3116     0.7651     2.4124 C.3     
   4 C4             0.4685    -0.5170     2.1087 C.3     
   5 C5             1.4152    -0.2627     0.9325 C.3     
   6 C6             0.6032     0.2037    -0.2779 C.3     
   7 C7             1.2497    -0.9097     3.2930 C.1     
   8 N8             1.8525    -1.2126     4.2069 N.1     
   9 C9            -0.8045     1.9863    -1.1153 C.3     
  10 C10           -1.1186     3.4644    -0.8759 C.3     
  11 O11            0.1022     4.1991    -0.7667 O.3     
  12 N12           -0.0335     9.6058     0.1015 N.pl3   
  13 N13            1.3564     9.7939     0.1224 N.2     
  14 N14            1.9440     8.6646    -0.0625 N.2     
  15 C15            1.0338     7.6820    -0.2139 C.ar    
  16 C16           -0.2424     8.2624    -0.1125 C.ar    
  17 C17            1.1425     6.3024    -0.4366 C.ar    
  18 C18           -0.0002     5.5379    -0.5511 C.ar    
  19 C19           -1.2578     6.1274    -0.4480 C.ar    
  20 C20           -1.3793     7.4712    -0.2324 C.ar    
  21 C21           -1.0604    10.6355     0.2788 C.3     
  22 C22           -1.4287    11.2283    -1.0828 C.3     
  23 C23           -2.5731    12.2428    -1.1253 C.3     
  24 C24           -1.1286    12.7110    -1.3122 C.3     
  25 Br25           2.8459     5.4934    -0.5781 Br      
  26 H26           -1.6187     2.1223     1.3677 H       
  27 H27           -1.7770     0.4205     0.8711 H       
  28 H28            0.3823     1.5516     2.7089 H       
  29 H29           -1.0181     0.5783     3.2211 H       
  30 H30           -0.2280    -1.3145     1.8499 H       
  31 H31            2.1363     0.5077     1.2058 H       
  32 H32            1.9425    -1.1837     0.6840 H       
  33 H33           -0.1081    -0.5728    -0.5591 H       
  34 H34            1.2760     0.3994    -1.1130 H       
  35 H35           -0.1580     1.8888    -1.9874 H       
  36 H36           -1.7324     1.4411    -1.2882 H       
  37 H37           -1.7023     3.8518    -1.7109 H       
  38 H38           -1.6898     3.5697     0.0465 H       
  39 H39           -2.1443     5.5174    -0.5399 H       
  40 H40           -2.3591     7.9189    -0.1542 H       
  41 H41           -1.9459    10.1911     0.7331 H       
  42 H42           -0.6765    11.4237     0.9264 H       
  43 H43           -1.3209    10.5552    -1.9333 H       
  44 H44           -3.2181    12.2374    -2.0040 H       
  45 H45           -3.0637    12.4879    -0.1833 H       
  46 H46           -0.6688    13.2640    -0.4932 H       
  47 H47           -0.8231    13.0135    -2.3139 H       
@<TRIPOS>BOND
   1    1    2 1
   2    1    6 1
   3    1    9 1
   4    2    3 1
   5    2   26 1
   6    2   27 1
   7    3    4 1
   8    3   28 1
   9    3   29 1
  10    4    5 1
  11    4    7 1
  12    4   30 1
  13    5    6 1
  14    5   31 1
  15    5   32 1
  16    6   33 1
  17    6   34 1
  18    7    8 3
  19    9   10 1
  20    9   35 1
  21    9   36 1
  22   10   11 1
  23   10   37 1
  24   10   38 1
  25   11   18 1
  26   12   13 1
  27   12   16 1
  28   12   21 1
  29   13   14 2
  30   14   15 1
  31   15   16 ar
  32   15   17 ar
  33   16   20 ar
  34   17   18 ar
  35   17   25 1
  36   18   19 ar
  37   19   20 ar
  38   19   39 1
  39   20   40 1
  40   21   22 1
  41   21   41 1
  42   21   42 1
  43   22   23 1
  44   22   24 1
  45   22   43 1
  46   23   24 1
  47   23   44 1
  48   23   45 1
  49   24   46 1
  50   24   47 1

#	End of record

