#	Name: ASD06660054
#	Creating user name:	WinNT
#	Creation time:	15. 06. 2019 21:07

#	Modifying user name:	WinNT
#	Modification time:	15. 06. 2019 21:07

#	Program:	/corina/corina34_cracker 3.40 0067  02.08.2006

@<TRIPOS>MOLECULE
ASD06660054
  73   76    0    0    0
SMALL
NO_CHARGES


@<TRIPOS>ATOM
   1 C1            -1.3530     1.7070     0.5235 C.2     
   2 C2            -0.9279     0.4376    -0.1688 C.3     
   3 C3            -1.5668     0.3757    -1.5576 C.3     
   4 O4            -0.5225     2.5129     0.8707 O.2     
   5 O5            -2.6546     1.9447     0.7494 O.3     
   6 C6            -1.2487    -0.9509    -2.1981 C.ar    
   7 C7            -2.0461    -2.0507    -1.9395 C.ar    
   8 C8            -1.7573    -3.2678    -2.5250 C.ar    
   9 C9            -0.6651    -3.3863    -3.3744 C.ar    
  10 C10            0.1335    -2.2798    -3.6324 C.ar    
  11 C11           -0.1635    -1.0643    -3.0476 C.ar    
  12 N12           -0.3695    -4.6181    -3.9687 N.am    
  13 C13           -1.1342    -5.7178    -3.8555 C.2     
  14 C14           -0.5196    -6.8611    -4.6325 C.3     
  15 C15            0.5043    -6.1769    -5.5676 C.3     
  16 C16            0.8120    -4.8737    -4.8010 C.3     
  17 O17           -2.1665    -5.7839    -3.2222 O.2     
  18 C18            1.7616    -7.0346    -5.7238 C.3     
  19 N19            1.4245    -8.2707    -6.4343 N.pl3   
  20 C20            2.4118    -9.2137    -6.6952 C.ar    
  21 C21            3.7182    -8.9775    -6.2790 C.ar    
  22 C22            4.6905    -9.9242    -6.5452 C.ar    
  23 C23            4.3225   -11.0801    -7.2215 C.ar    
  24 C24            3.0076   -11.2493    -7.6053 C.ar    
  25 N25            2.0995   -10.3312    -7.3330 N.ar    
  26 C26            6.1173    -9.7064    -6.1118 C.3     
  27 C27            1.3014     0.1482     0.7713 C.2     
  28 C28            2.7671     0.0235     0.6164 C.ar    
  29 C29            3.3482    -1.2370     0.4628 C.ar    
  30 C30            4.7127    -1.3533     0.3186 C.ar    
  31 C31            5.5157    -0.2102     0.3259 C.ar    
  32 C32            4.9343     1.0503     0.4794 C.ar    
  33 C33            3.5687     1.1665     0.6180 C.ar    
  34 O34            0.7917     0.0067     1.8656 O.2     
  35 N35            0.5310     0.4185    -0.3010 N.am    
  36 C36            2.9406     2.5271     0.7770 C.3     
  37 C37            2.4819    -2.4701     0.4555 C.3     
  38 C38            1.9452    -2.7079    -0.9574 C.3     
  39 C39            6.9347    -0.3309     0.1764 C.1     
  40 N40            8.0604    -0.4266     0.0578 N.1     
  41 H41           -1.2508    -0.4221     0.4184 H       
  42 H42           -2.6474     0.4849    -1.4657 H       
  43 H43           -1.1714     1.1817    -2.1757 H       
  44 H44           -2.8785     2.7724     1.1965 H       
  45 H45           -2.8954    -1.9579    -1.2789 H       
  46 H46           -2.3800    -4.1266    -2.3221 H       
  47 H47            0.9836    -2.3687    -4.2925 H       
  48 H48            0.4547    -0.2024    -3.2510 H       
  49 H49           -0.0166    -7.5539    -3.9579 H       
  50 H50           -1.2813    -7.3795    -5.2149 H       
  51 H51            0.0602    -5.9580    -6.5387 H       
  52 H52            0.9665    -4.0513    -5.4994 H       
  53 H53            1.6934    -5.0074    -4.1738 H       
  54 H54            2.5103    -6.4819    -6.2914 H       
  55 H55            2.1596    -7.2787    -4.7389 H       
  56 H56            0.5123    -8.4310    -6.7225 H       
  57 H57            3.9697    -8.0670    -5.7553 H       
  58 H58            5.0579   -11.8388    -7.4452 H       
  59 H59            2.7171   -12.1467    -8.1314 H       
  60 H60            6.2591   -10.1136    -5.1107 H       
  61 H61            6.7891   -10.2094    -6.8072 H       
  62 H62            6.3356    -8.6385    -6.1039 H       
  63 H63            5.1621    -2.3282     0.2002 H       
  64 H64            5.5549     1.9341     0.4855 H       
  65 H65            0.9425     0.6005    -1.1604 H       
  66 H66            2.8905     2.7827     1.8354 H       
  67 H67            3.5427     3.2688     0.2522 H       
  68 H68            1.9343     2.5139     0.3583 H       
  69 H69            3.0725    -3.3308     0.7695 H       
  70 H70            1.6473    -2.3319     1.1427 H       
  71 H71            1.2417    -3.5403    -0.9435 H       
  72 H72            1.4382    -1.8095    -1.3095 H       
  73 H73            2.7734    -2.9434    -1.6258 H       
@<TRIPOS>BOND
   1    1    2 1
   2    1    4 2
   3    1    5 1
   4    2    3 1
   5    2   35 1
   6    2   41 1
   7    3    6 1
   8    3   42 1
   9    3   43 1
  10    5   44 1
  11    6    7 ar
  12    6   11 ar
  13    7    8 ar
  14    7   45 1
  15    8    9 ar
  16    8   46 1
  17    9   10 ar
  18    9   12 1
  19   10   11 ar
  20   10   47 1
  21   11   48 1
  22   12   13 am
  23   12   16 1
  24   13   14 1
  25   13   17 2
  26   14   15 1
  27   14   49 1
  28   14   50 1
  29   15   16 1
  30   15   18 1
  31   15   51 1
  32   16   52 1
  33   16   53 1
  34   18   19 1
  35   18   54 1
  36   18   55 1
  37   19   20 1
  38   19   56 1
  39   20   21 ar
  40   20   25 ar
  41   21   22 ar
  42   21   57 1
  43   22   23 ar
  44   22   26 1
  45   23   24 ar
  46   23   58 1
  47   24   25 ar
  48   24   59 1
  49   26   60 1
  50   26   61 1
  51   26   62 1
  52   27   28 1
  53   27   34 2
  54   27   35 am
  55   28   29 ar
  56   28   33 ar
  57   29   30 ar
  58   29   37 1
  59   30   31 ar
  60   30   63 1
  61   31   32 ar
  62   31   39 1
  63   32   33 ar
  64   32   64 1
  65   33   36 1
  66   35   65 1
  67   36   66 1
  68   36   67 1
  69   36   68 1
  70   37   38 1
  71   37   69 1
  72   37   70 1
  73   38   71 1
  74   38   72 1
  75   38   73 1
  76   39   40 3

#	End of record

