#	Name: ASD01870672
#	Creating user name:	WinNT
#	Creation time:	15. 06. 2019 19:39

#	Modifying user name:	WinNT
#	Modification time:	15. 06. 2019 19:39

#	Program:	/corina/corina34_cracker 3.40 0067  02.08.2006

@<TRIPOS>MOLECULE
ASD01870672
  34   37    0    0    0
SMALL
NO_CHARGES


@<TRIPOS>ATOM
   1 C1            -0.0176     1.4475     0.0100 C.2     
   2 C2             0.0021    -0.0041     0.0020 C.2     
   3 C3             1.2300    -0.5357    -0.0126 C.2     
   4 S4             2.4420     0.6584    -0.0177 S.3     
   5 C5             1.2709     1.9668     0.0005 C.2     
   6 C6            -1.2316    -0.8264     0.0098 C.ar    
   7 C7            -1.3932    -1.8544    -0.9177 C.ar    
   8 C8            -2.5434    -2.6168    -0.9054 C.ar    
   9 C9            -3.5352    -2.3623     0.0248 C.ar    
  10 C10           -3.3806    -1.3432     0.9474 C.ar    
  11 C11           -2.2319    -0.5783     0.9485 C.ar    
  12 N12           -1.0698     2.3091     0.0298 N.2     
  13 C13            1.4404     3.3731     0.0068 C.2     
  14 N14            0.3426     4.1567     0.0219 N.am    
  15 C15           -0.8965     3.5949     0.0341 C.2     
  16 C16            0.4785     5.5510     0.0285 C.ar    
  17 C17            0.5344     6.2503    -1.1697 C.ar    
  18 C18            0.6684     7.6249    -1.1601 C.ar    
  19 C19            0.7475     8.3055     0.0413 C.ar    
  20 C20            0.6923     7.6130     1.2366 C.ar    
  21 C21            0.5520     6.2377     1.2342 C.ar    
  22 O22            2.5563     3.8654    -0.0008 O.2     
  23 Cl23           0.4754     5.3691     2.7353 Cl      
  24 H24            1.4283    -1.5973    -0.0198 H       
  25 H25           -0.6199    -2.0535    -1.6449 H       
  26 H26           -2.6697    -3.4134    -1.6236 H       
  27 H27           -4.4338    -2.9613     0.0305 H       
  28 H28           -4.1583    -1.1488     1.6710 H       
  29 H29           -2.1102     0.2140     1.6723 H       
  30 H30           -1.7629     4.2395     0.0497 H       
  31 H31            0.4734     5.7198    -2.1085 H       
  32 H32            0.7119     8.1690    -2.0920 H       
  33 H33            0.8530     9.3803     0.0457 H       
  34 H34            0.7547     8.1473     2.1731 H       
@<TRIPOS>BOND
   1    1    2 1
   2    1    5 2
   3    1   12 1
   4    2    3 2
   5    2    6 1
   6    3    4 1
   7    3   24 1
   8    4    5 1
   9    5   13 1
  10    6    7 ar
  11    6   11 ar
  12    7    8 ar
  13    7   25 1
  14    8    9 ar
  15    8   26 1
  16    9   10 ar
  17    9   27 1
  18   10   11 ar
  19   10   28 1
  20   11   29 1
  21   12   15 2
  22   13   14 am
  23   13   22 2
  24   14   15 1
  25   14   16 1
  26   15   30 1
  27   16   17 ar
  28   16   21 ar
  29   17   18 ar
  30   17   31 1
  31   18   19 ar
  32   18   32 1
  33   19   20 ar
  34   19   33 1
  35   20   21 ar
  36   20   34 1
  37   21   23 1

#	End of record

