#	Name: ASD01410990
#	Creating user name:	WinNT
#	Creation time:	15. 06. 2019 19:19

#	Modifying user name:	WinNT
#	Modification time:	15. 06. 2019 19:19

#	Program:	/corina/corina34_cracker 3.40 0067  02.08.2006

@<TRIPOS>MOLECULE
ASD01410990
  63   67    0    0    0
SMALL
NO_CHARGES


@<TRIPOS>ATOM
   1 C1            -0.0225     1.8097     0.0120 C.ar    
   2 P2             0.0021    -0.0041     0.0020 P.3     
   3 N3             0.0243    -0.5590     1.5451 N.pl3   
   4 O4            -1.2061    -0.5101    -0.6869 O.2     
   5 C5             0.0452    -1.9245     1.7912 C.2     
   6 C6             0.0645    -2.4624     3.0624 C.2     
   7 S7             0.0869    -4.2167     2.9018 S.3     
   8 C8             0.0689    -4.0770     1.1989 C.2     
   9 N9             0.0428    -2.8250     0.8382 N.2     
  10 C10            0.0668    -1.7368     4.2739 C.2     
  11 O11            0.0508    -0.5196     4.2545 O.2     
  12 O12            0.0869    -2.3929     5.4537 O.3     
  13 C13            0.0764    -5.2195     0.2633 C.ar    
  14 C14            0.0991    -6.5267     0.7563 C.ar    
  15 C15            0.1056    -7.5910    -0.1169 C.ar    
  16 C16            0.0899    -7.3648    -1.4932 C.ar    
  17 C17            0.0677    -6.0603    -1.9866 C.ar    
  18 C18            0.0549    -4.9944    -1.1154 C.ar    
  19 O19            1.3165    -0.5187    -0.7723 O.3     
  20 C20            1.5888    -0.2019    -2.1389 C.3     
  21 C21            1.1649     2.5170     0.0045 C.ar    
  22 C22            1.1461     3.8994     0.0121 C.ar    
  23 C23           -0.0600     4.5741     0.0268 C.ar    
  24 C24           -1.2478     3.8666     0.0335 C.ar    
  25 C25           -1.2291     2.4847     0.0214 C.ar    
  26 C26           -0.0805     6.0810     0.0362 C.3     
  27 C27            2.4800     1.7814    -0.0116 C.3     
  28 C28            0.0974    -8.5124    -2.4329 C.2     
  29 N29            0.1179    -9.7884    -2.0908 N.2     
  30 N30            0.1184   -10.5662    -3.2540 N.pl3   
  31 C31            0.0973    -9.7159    -4.3302 C.2     
  32 C32            0.0779    -8.4240    -3.8287 C.2     
  33 C33            0.1352   -11.9205    -3.4596 C.2     
  34 C34            0.1305   -12.3966    -4.7427 C.2     
  35 C35            0.1088   -11.4951    -5.8071 C.2     
  36 N36            0.0911   -10.1998    -5.5815 N.2     
  37 C37            0.1040   -12.0088    -7.2238 C.3     
  38 N38            0.1569   -12.7904    -2.3905 N.pl3   
  39 H39            0.0227     0.0673     2.2858 H       
  40 H40            0.0868    -1.8121     6.2268 H       
  41 H41            0.1120    -6.7021     1.8219 H       
  42 H42            0.1232    -8.6015     0.2638 H       
  43 H43            0.0562    -5.8865    -3.0524 H       
  44 H44            0.0327    -3.9845    -1.4976 H       
  45 H45            0.7839    -0.5828    -2.7675 H       
  46 H46            1.6589     0.8797    -2.2541 H       
  47 H47            2.5312    -0.6610    -2.4375 H       
  48 H48            2.0740     4.4521     0.0069 H       
  49 H49           -2.1903     4.3939     0.0453 H       
  50 H50           -2.1570     1.9320     0.0227 H       
  51 H51           -0.0945     6.4505    -0.9892 H       
  52 H52           -0.9707     6.4290     0.5600 H       
  53 H53            0.8090     6.4533     0.5445 H       
  54 H54            2.7875     1.6092    -1.0431 H       
  55 H55            3.2364     2.3781     0.4982 H       
  56 H56            2.3675     0.8247     0.4985 H       
  57 H57            0.0548    -7.5142    -4.4102 H       
  58 H58            0.1438   -13.4602    -4.9295 H       
  59 H59           -0.9247   -12.1470    -7.5567 H       
  60 H60            0.6023   -11.2889    -7.8731 H       
  61 H61            0.6309   -12.9620    -7.2665 H       
  62 H62            0.1604   -12.4449    -1.4841 H       
  63 H63            0.1686   -13.7480    -2.5446 H       
@<TRIPOS>BOND
   1    1    2 1
   2    1   21 ar
   3    1   25 ar
   4    2    3 1
   5    2    4 2
   6    2   19 1
   7    3    5 1
   8    3   39 1
   9    5    6 2
  10    5    9 1
  11    6    7 1
  12    6   10 1
  13    7    8 1
  14    8    9 2
  15    8   13 1
  16   10   11 2
  17   10   12 1
  18   12   40 1
  19   13   14 ar
  20   13   18 ar
  21   14   15 ar
  22   14   41 1
  23   15   16 ar
  24   15   42 1
  25   16   17 ar
  26   16   28 1
  27   17   18 ar
  28   17   43 1
  29   18   44 1
  30   19   20 1
  31   20   45 1
  32   20   46 1
  33   20   47 1
  34   21   22 ar
  35   21   27 1
  36   22   23 ar
  37   22   48 1
  38   23   24 ar
  39   23   26 1
  40   24   25 ar
  41   24   49 1
  42   25   50 1
  43   26   51 1
  44   26   52 1
  45   26   53 1
  46   27   54 1
  47   27   55 1
  48   27   56 1
  49   28   29 2
  50   28   32 1
  51   29   30 1
  52   30   33 1
  53   30   31 1
  54   31   32 2
  55   31   36 1
  56   32   57 1
  57   33   34 2
  58   33   38 1
  59   34   35 1
  60   34   58 1
  61   35   36 2
  62   35   37 1
  63   37   59 1
  64   37   60 1
  65   37   61 1
  66   38   62 1
  67   38   63 1

#	End of record

