#	Name: ASD05470003
#	Creating user name:	WinNT
#	Creation time:	15. 06. 2019 21:00

#	Modifying user name:	WinNT
#	Modification time:	15. 06. 2019 21:00

#	Program:	/corina/corina34_cracker 3.40 0067  02.08.2006

@<TRIPOS>MOLECULE
ASD05470003
  44   47    0    0    0
SMALL
NO_CHARGES


@<TRIPOS>ATOM
   1 Cl1           -2.5425    -5.0645    -4.9261 Cl      
   2 Cl2            6.6858    -6.9632    -0.0716 Cl      
   3 O3            -0.0163     1.3486     0.0095 O.3     
   4 O4             2.3572    -0.4212    -0.0221 O.2     
   5 O5            -3.4795    -1.2852     0.0280 O.3     
   6 O6            -2.7589     0.8165     0.0319 O.2     
   7 N7             0.8774    -2.1453    -0.0170 N.am    
   8 N8             3.1146    -3.1156    -0.0378 N.pl3   
   9 N9             1.3994    -4.4761    -0.0230 N.2     
  10 C10           -0.5879    -2.2277    -0.0038 C.3     
  11 C11           -1.0897    -0.8026     0.0082 C.2     
  12 C12           -1.0781    -2.9394    -1.2384 C.ar    
  13 C13            1.2181    -0.8438    -0.0136 C.2     
  14 C14            1.7529    -3.2160    -0.0255 C.2     
  15 C15            0.0021    -0.0041     0.0020 C.2     
  16 C16            3.6211    -4.4037    -0.0431 C.ar    
  17 C17           -2.4898    -0.3690     0.0234 C.2     
  18 C18           -2.1276    -3.8347    -1.1490 C.ar    
  19 C19           -0.4818    -2.6923    -2.4609 C.ar    
  20 C20            2.5081    -5.2610    -0.0335 C.ar    
  21 C21           -2.5776    -4.4877    -2.2810 C.ar    
  22 C22           -0.9315    -3.3440    -3.5937 C.ar    
  23 C23            4.9030    -4.9331    -0.0546 C.ar    
  24 C24            2.7051    -6.6445    -0.0367 C.ar    
  25 C25           -1.9778    -4.2448    -3.5038 C.ar    
  26 C26            5.0808    -6.3019    -0.0566 C.ar    
  27 C27            3.9841    -7.1532    -0.0492 C.ar    
  28 C28           -4.8420    -0.7836     0.0433 C.3     
  29 C29           -5.8189    -1.9612     0.0464 C.3     
  30 H30           -0.9258    -2.7515     0.8904 H       
  31 H31            3.6308    -2.2944    -0.0457 H       
  32 H32           -2.5958    -4.0242    -0.1944 H       
  33 H33            0.3354    -1.9897    -2.5308 H       
  34 H34           -3.3971    -5.1877    -2.2109 H       
  35 H35           -0.4656    -3.1509    -4.5487 H       
  36 H36            5.7600    -4.2760    -0.0624 H       
  37 H37            1.8565    -7.3125    -0.0290 H       
  38 H38            0.8617     1.7539     0.0033 H       
  39 H39            4.1355    -8.2225    -0.0517 H       
  40 H40           -4.9972    -0.1805     0.9378 H       
  41 H41           -5.0138    -0.1714    -0.8421 H       
  42 H42           -6.8418    -1.5847     0.0579 H       
  43 H43           -5.6638    -2.5643    -0.8481 H       
  44 H44           -5.6472    -2.5734     0.9317 H       
@<TRIPOS>BOND
   1    1   25 1
   2    2   26 1
   3    3   15 1
   4    3   38 1
   5    4   13 2
   6    5   17 1
   7    5   28 1
   8    6   17 2
   9    7   10 1
  10    7   13 am
  11    7   14 1
  12    8   14 1
  13    8   16 1
  14    8   31 1
  15    9   14 2
  16    9   20 1
  17   10   11 1
  18   10   12 1
  19   10   30 1
  20   11   15 2
  21   11   17 1
  22   12   18 ar
  23   12   19 ar
  24   13   15 1
  25   16   20 ar
  26   16   23 ar
  27   18   21 ar
  28   18   32 1
  29   19   22 ar
  30   19   33 1
  31   20   24 ar
  32   21   25 ar
  33   21   34 1
  34   22   25 ar
  35   22   35 1
  36   23   26 ar
  37   23   36 1
  38   24   27 ar
  39   24   37 1
  40   26   27 ar
  41   27   39 1
  42   28   29 1
  43   28   40 1
  44   28   41 1
  45   29   42 1
  46   29   43 1
  47   29   44 1

#	End of record

