#	Name: ASD01910549
#	Creating user name:	WinNT
#	Creation time:	15. 06. 2019 19:56

#	Modifying user name:	WinNT
#	Modification time:	15. 06. 2019 19:56

#	Program:	/corina/corina34_cracker 3.40 0067  02.08.2006

@<TRIPOS>MOLECULE
ASD01910549
  42   45    0    0    0
SMALL
NO_CHARGES


@<TRIPOS>ATOM
   1 N1             1.1363    -1.2161     1.0687 N.2     
   2 C2             1.5869    -2.4180     0.8060 C.2     
   3 N3             2.8930    -2.2898     0.4736 N.2     
   4 C4             3.1529    -1.0092     0.5565 C.2     
   5 O5             2.0229    -0.4001     0.9296 O.3     
   6 C6             0.8149    -3.6769     0.8628 C.2     
   7 C7            -0.5005    -3.7972     1.1989 C.2     
   8 C8            -0.8278    -5.1595     1.1241 C.2     
   9 C9             0.2843    -5.8292     0.7481 C.2     
  10 N10            1.2935    -4.9316     0.5806 N.pl3   
  11 C11            4.3185     0.6646    -0.8571 C.3     
  12 C12            4.4781    -0.3460     0.2830 C.3     
  13 C13            4.9543     0.3823     1.5420 C.3     
  14 C14            6.3157     1.0286     1.2753 C.3     
  15 C15            6.1769     2.0548     0.1465 C.3     
  16 N16            5.5834     1.3934    -1.0236 N.am    
  17 C17            6.1879     1.4537    -2.2266 C.2     
  18 C18            5.6239     0.7145    -3.3746 C.ar    
  19 O19            7.1974     2.1163    -2.3671 O.2     
  20 C20            4.2706     0.8433    -3.6943 C.ar    
  21 C21            3.7496     0.1517    -4.7668 C.ar    
  22 C22            4.5665    -0.6707    -5.5276 C.ar    
  23 C23            5.9108    -0.8025    -5.2142 C.ar    
  24 C24            6.4433    -0.1110    -4.1474 C.ar    
  25 F25            4.0508    -1.3463    -6.5777 F       
  26 F26            6.7640     1.6687     2.4357 F       
  27 F27            7.2350     0.0431     0.9001 F       
  28 H28           -1.1672    -2.9928     1.4726 H       
  29 H29           -1.7944    -5.5948     1.3302 H       
  30 H30            0.3587    -6.8967     0.6019 H       
  31 H31            2.2012    -5.1440     0.3123 H       
  32 H32            4.0756     0.1386    -1.7803 H       
  33 H33            3.5213     1.3671    -0.6138 H       
  34 H34            5.2117    -1.1009    -0.0000 H       
  35 H35            4.2324     1.1536     1.8103 H       
  36 H36            5.0451    -0.3307     2.3615 H       
  37 H37            5.5312     2.8707     0.4716 H       
  38 H38            7.1601     2.4461    -0.1147 H       
  39 H39            3.6333     1.4833    -3.1022 H       
  40 H40            2.7031     0.2503    -5.0147 H       
  41 H41            6.5426    -1.4446    -5.8099 H       
  42 H42            7.4906    -0.2141    -3.9044 H       
@<TRIPOS>BOND
   1    1    2 2
   2    1    5 1
   3    2    3 1
   4    2    6 1
   5    3    4 2
   6    4    5 1
   7    4   12 1
   8    6    7 2
   9    6   10 1
  10    7    8 1
  11    7   28 1
  12    8    9 2
  13    8   29 1
  14    9   10 1
  15    9   30 1
  16   10   31 1
  17   11   12 1
  18   11   16 1
  19   11   32 1
  20   11   33 1
  21   12   13 1
  22   12   34 1
  23   13   14 1
  24   13   35 1
  25   13   36 1
  26   14   15 1
  27   14   26 1
  28   14   27 1
  29   15   16 1
  30   15   37 1
  31   15   38 1
  32   16   17 am
  33   17   18 1
  34   17   19 2
  35   18   20 ar
  36   18   24 ar
  37   20   21 ar
  38   20   39 1
  39   21   22 ar
  40   21   40 1
  41   22   23 ar
  42   22   25 1
  43   23   24 ar
  44   23   41 1
  45   24   42 1

#	End of record

