#	Name: ASD01916275
#	Creating user name:	WinNT
#	Creation time:	15. 06. 2019 20:07

#	Modifying user name:	WinNT
#	Modification time:	15. 06. 2019 20:07

#	Program:	/corina/corina34_cracker 3.40 0067  02.08.2006

@<TRIPOS>MOLECULE
ASD01916275
  37   39    0    0    0
SMALL
NO_CHARGES


@<TRIPOS>ATOM
   1 C1            -0.0530     1.3252    -0.2458 C.ar    
   2 C2             0.0326    -0.0536    -0.1710 C.ar    
   3 C3             1.2267    -0.6576     0.1716 C.ar    
   4 C4             2.3505     0.1242     0.4432 C.ar    
   5 C5             2.2621     1.5147     0.3671 C.ar    
   6 C6             1.0603     2.1104     0.0228 C.ar    
   7 O7             0.9705     3.4643    -0.0527 O.3     
   8 C8             1.4664     4.0758    -1.1605 C.ar    
   9 C9             1.4010     5.4582    -1.3021 C.ar    
  10 N10            1.8952     6.0157    -2.3952 N.ar    
  11 C11            2.4434     5.2798    -3.3412 C.ar    
  12 N12            2.5237     3.9680    -3.2442 N.ar    
  13 C13            2.0576     3.3360    -2.1796 C.ar    
  14 Cl14          -1.3646    -1.0273    -0.5079 Cl      
  15 C15            3.6300    -0.5185     0.8106 C.2     
  16 N16            3.7128    -1.8617     0.8838 N.am    
  17 O17            4.6075     0.1644     1.0466 O.2     
  18 C18            4.9426    -2.4722     1.1259 C.ar    
  19 C19            5.0429    -3.8580     1.0846 C.ar    
  20 C20            7.3585    -3.6347     1.6030 C.ar    
  21 C21            7.1865    -2.2624     1.6222 C.ar    
  22 N22            6.0042    -1.7262     1.3874 N.ar    
  23 C23            6.2691    -4.4522     1.3266 C.ar    
  24 F24            8.5734    -4.1742     1.8443 F       
  25 C25            8.3640    -1.3687     1.9153 C.3     
  26 H26           -0.9879     1.7923    -0.5185 H       
  27 H27            1.2906    -1.7342     0.2296 H       
  28 H28            3.1284     2.1247     0.5765 H       
  29 H29            0.9529     6.0673    -0.5310 H       
  30 H30            2.8377     5.7658    -4.2213 H       
  31 H31            2.1268     2.2607    -2.1068 H       
  32 H32            2.9167    -2.4037     0.7681 H       
  33 H33            4.1752    -4.4630     0.8668 H       
  34 H34            6.3769    -5.5265     1.3015 H       
  35 H35            8.8662    -1.1119     0.9827 H       
  36 H36            8.0164    -0.4582     2.4035 H       
  37 H37            9.0609    -1.8897     2.5718 H       
@<TRIPOS>BOND
   1    1    2 ar
   2    1    6 ar
   3    1   26 1
   4    2    3 ar
   5    2   14 1
   6    3    4 ar
   7    3   27 1
   8    4    5 ar
   9    4   15 1
  10    5    6 ar
  11    5   28 1
  12    6    7 1
  13    7    8 1
  14    8    9 ar
  15    8   13 ar
  16    9   10 ar
  17    9   29 1
  18   10   11 ar
  19   11   12 ar
  20   11   30 1
  21   12   13 ar
  22   13   31 1
  23   15   16 am
  24   15   17 2
  25   16   18 1
  26   16   32 1
  27   18   19 ar
  28   18   22 ar
  29   19   23 ar
  30   19   33 1
  31   20   21 ar
  32   20   24 1
  33   20   23 ar
  34   21   22 ar
  35   21   25 1
  36   23   34 1
  37   25   35 1
  38   25   36 1
  39   25   37 1

#	End of record

