#	Name: ASD09120005
#	Creating user name:	WinNT
#	Creation time:	15. 06. 2019 21:21

#	Modifying user name:	WinNT
#	Modification time:	15. 06. 2019 21:21

#	Program:	/corina/corina34_cracker 3.40 0067  02.08.2006

@<TRIPOS>MOLECULE
ASD09120005
  31   32    0    0    0
SMALL
NO_CHARGES


@<TRIPOS>ATOM
   1 C1            -0.0527     1.3758    -0.0153 C.ar    
   2 C2            -0.0517    -0.0035    -0.0301 C.ar    
   3 C3             1.1267    -0.7006     0.1709 C.ar    
   4 C4             2.3116    -0.0210     0.3884 C.ar    
   5 C5             2.3257     1.3599     0.4059 C.ar    
   6 C6             1.1390     2.0695     0.2031 C.ar    
   7 N7            -1.3147    -0.7400    -0.2611 N.pl3   
   8 O8            -2.3529    -0.1281    -0.4378 O.2     
   9 O9            -1.3158    -1.9579    -0.2745 O.2     
  10 C10            1.1455     3.5467     0.2198 C.2     
  11 O11            2.1848     4.1479     0.4102 O.2     
  12 N12           -0.0009     4.2279     0.0238 N.am    
  13 C13           -0.0140     5.6218     0.1365 C.ar    
  14 Cl14           3.8133     2.2118     0.6795 Cl      
  15 C15            1.0667     7.7406    -0.1685 C.ar    
  16 C16            1.0828     6.3640    -0.2812 C.ar    
  17 C17           -1.1264     6.2673     0.6614 C.ar    
  18 C18           -1.1361     7.6437     0.7714 C.ar    
  19 C19           -0.0399     8.3796     0.3596 C.ar    
  20 C20           -2.3427     8.3448     1.3402 C.3     
  21 H21           -0.9726     1.9180    -0.1768 H       
  22 H22            1.1211    -1.7805     0.1582 H       
  23 H23            3.2275    -0.5714     0.5452 H       
  24 H24           -0.8168     3.7514    -0.1953 H       
  25 H25            1.9195     8.3184    -0.4929 H       
  26 H26            1.9476     5.8655    -0.6935 H       
  27 H27           -1.9829     5.6932     0.9828 H       
  28 H28           -0.0498     9.4560     0.4470 H       
  29 H29           -2.2313     8.4414     2.4202 H       
  30 H30           -2.4312     9.3354     0.8941 H       
  31 H31           -3.2384     7.7648     1.1178 H       
@<TRIPOS>BOND
   1    1    2 ar
   2    1    6 ar
   3    1   21 1
   4    2    3 ar
   5    2    7 1
   6    3    4 ar
   7    3   22 1
   8    4    5 ar
   9    4   23 1
  10    5    6 ar
  11    5   14 1
  12    6   10 1
  13    7    8 2
  14    7    9 2
  15   10   11 2
  16   10   12 am
  17   12   13 1
  18   12   24 1
  19   13   17 ar
  20   13   16 ar
  21   15   16 ar
  22   15   19 ar
  23   15   25 1
  24   16   26 1
  25   17   18 ar
  26   17   27 1
  27   18   19 ar
  28   18   20 1
  29   19   28 1
  30   20   29 1
  31   20   30 1
  32   20   31 1

#	End of record

