#	Name: ASD05430255
#	Creating user name:	WinNT
#	Creation time:	15. 06. 2019 21:00

#	Modifying user name:	WinNT
#	Modification time:	15. 06. 2019 21:00

#	Program:	/corina/corina34_cracker 3.40 0067  02.08.2006

@<TRIPOS>MOLECULE
ASD05430255
  76   82    0    0    0
SMALL
NO_CHARGES


@<TRIPOS>ATOM
   1 C1             1.0967     1.1325    -1.5172 C.ar    
   2 C2             0.2860     0.7919    -0.4374 C.ar    
   3 C3             0.5935     1.2609     0.8311 C.ar    
   4 C4             1.7019     2.0639     1.0207 C.ar    
   5 C5             2.5065     2.4023    -0.0520 C.ar    
   6 C6             2.2066     1.9384    -1.3189 C.ar    
   7 C7             4.9871     1.3829     1.1778 C.3     
   8 C8             4.4727     2.8090     1.4013 C.3     
   9 C9             3.7134     3.2793     0.1611 C.3     
  10 C10            3.8045     0.4097     1.2092 C.3     
  11 C11            3.0688     0.3295     2.5536 C.3     
  12 N12            2.8475     1.6970     3.0250 N.pl3   
  13 C13            3.5412     2.8123     2.5930 C.2     
  14 N14            3.2880     3.8189     3.3539 N.2     
  15 N15           -0.8398    -0.0236    -0.6324 N.pl3   
  16 C16           -1.1130    -1.2026     0.0111 C.2     
  17 C17           -2.2863    -1.6499    -0.4757 C.2     
  18 N18           -2.7216    -0.7720    -1.3913 N.2     
  19 C19           -1.8666     0.2095    -1.4898 C.2     
  20 C20           -2.9887    -2.9178    -0.0629 C.3     
  21 C21            1.8677     2.1671     4.0104 C.3     
  22 O22            2.3950     3.4537     4.3947 O.3     
  23 C23            0.5061     2.3141     3.3814 C.ar    
  24 O24            0.8032     0.6711    -2.7619 O.3     
  25 C25            1.8121     1.2227     5.2128 C.3     
  26 C26           -0.4427     1.3227     3.5487 C.ar    
  27 C27           -1.0435     3.5792     2.0657 C.ar    
  28 C28            0.2049     3.4430     2.6425 C.ar    
  29 C29           -1.9927     2.5842     2.2277 C.ar    
  30 F30           -3.2135     2.7162     1.6643 F       
  31 C31            2.9751     0.2539    -0.0638 C.3     
  32 C32            3.9126    -0.8703     0.3827 C.3     
  33 C33            1.6790     1.0612    -3.8216 C.3     
  34 C34           -1.6916     1.4564     2.9724 C.ar    
  35 C35            4.6320     3.1906    -1.0623 C.3     
  36 C36            5.6527     3.7404     1.6778 C.3     
  37 C37            6.6431     3.6682     0.5106 C.3     
  38 C38            5.8975     3.9664    -0.7714 C.2     
  39 O39            6.3026     4.8023    -1.5432 O.2     
  40 O40            5.1787     5.0812     1.8183 O.3     
  41 C41            5.9683     5.8880     2.6945 C.3     
  42 H42           -0.0335     0.9987     1.6705 H       
  43 H43            1.9403     2.4285     2.0089 H       
  44 H44            2.8371     2.2042    -2.1545 H       
  45 H45            5.4829     1.3223     0.2090 H       
  46 H46            5.6935     1.1229     1.9662 H       
  47 H47            3.3925     4.3116     0.3010 H       
  48 H48            2.1115    -0.1746     2.4209 H       
  49 H49            3.6770    -0.2158     3.2753 H       
  50 H50           -0.5039    -1.6813     0.7636 H       
  51 H51           -1.9571     1.0608    -2.1483 H       
  52 H52           -3.6592    -2.7069     0.7702 H       
  53 H53           -3.5644    -3.3045    -0.9038 H       
  54 H54           -2.2504    -3.6588     0.2435 H       
  55 H55            2.7931     1.1785     5.6858 H       
  56 H56            1.0790     1.5910     5.9305 H       
  57 H57            1.5245     0.2257     4.8788 H       
  58 H58           -0.2077     0.4431     4.1296 H       
  59 H59           -1.2785     4.4610     1.4881 H       
  60 H60            0.9454     4.2190     2.5162 H       
  61 H61            1.9034     0.0908     0.0505 H       
  62 H62            3.2715     0.8413    -0.9328 H       
  63 H63            4.8258    -1.0225    -0.1926 H       
  64 H64            3.4577    -1.7729     0.7907 H       
  65 H65            1.3318     0.6259    -4.7587 H       
  66 H66            1.6856     2.1478    -3.9061 H       
  67 H67            2.6876     0.7072    -3.6082 H       
  68 H68           -2.4325     0.6814     3.1026 H       
  69 H69            4.8793     2.1475    -1.2595 H       
  70 H70            4.1300     3.6207    -1.9290 H       
  71 H71            6.1511     3.4327     2.5970 H       
  72 H72            7.4331     4.4052     0.6547 H       
  73 H73            7.0756     2.6690     0.4587 H       
  74 H74            5.9757     5.4435     3.6897 H       
  75 H75            6.9884     5.9456     2.3147 H       
  76 H76            5.5431     6.8903     2.7473 H       
@<TRIPOS>BOND
   1    1    2 ar
   2    1    6 ar
   3    1   24 1
   4    2    3 ar
   5    2   15 1
   6    3    4 ar
   7    3   42 1
   8    4    5 ar
   9    4   43 1
  10    5    6 ar
  11    5    9 1
  12    6   44 1
  13    7    8 1
  14    7   10 1
  15    7   45 1
  16    7   46 1
  17    8    9 1
  18    8   36 1
  19    8   13 1
  20    9   35 1
  21    9   47 1
  22   10   11 1
  23   10   31 1
  24   10   32 1
  25   11   12 1
  26   11   48 1
  27   11   49 1
  28   12   13 1
  29   12   21 1
  30   13   14 2
  31   14   22 1
  32   15   16 1
  33   15   19 1
  34   16   17 2
  35   16   50 1
  36   17   18 1
  37   17   20 1
  38   18   19 2
  39   19   51 1
  40   20   52 1
  41   20   53 1
  42   20   54 1
  43   21   22 1
  44   21   23 1
  45   21   25 1
  46   23   26 ar
  47   23   28 ar
  48   24   33 1
  49   25   55 1
  50   25   56 1
  51   25   57 1
  52   26   34 ar
  53   26   58 1
  54   27   28 ar
  55   27   29 ar
  56   27   59 1
  57   28   60 1
  58   29   30 1
  59   29   34 ar
  60   31   32 1
  61   31   61 1
  62   31   62 1
  63   32   63 1
  64   32   64 1
  65   33   65 1
  66   33   66 1
  67   33   67 1
  68   34   68 1
  69   35   38 1
  70   35   69 1
  71   35   70 1
  72   36   37 1
  73   36   40 1
  74   36   71 1
  75   37   38 1
  76   37   72 1
  77   37   73 1
  78   38   39 2
  79   40   41 1
  80   41   74 1
  81   41   75 1
  82   41   76 1

#	End of record

