#	Name: ASD02560360
#	Creating user name:	WinNT
#	Creation time:	15. 06. 2019 20:25

#	Modifying user name:	WinNT
#	Modification time:	15. 06. 2019 20:25

#	Program:	/corina/corina34_cracker 3.40 0067  02.08.2006

@<TRIPOS>MOLECULE
ASD02560360
  54   58    0    0    0
SMALL
NO_CHARGES


@<TRIPOS>ATOM
   1 C1             0.0160     1.4267     0.3020 C.2     
   2 C2             0.0205     0.0259     0.1762 C.2     
   3 C3             1.1856    -0.6472     0.0972 C.2     
   4 N4             2.3805     0.0204     0.1386 N.pl3   
   5 C5             2.4076     1.3910     0.2612 C.2     
   6 C6             1.1930     2.1052     0.3442 C.2     
   7 C7             3.6768    -0.4096     0.0798 C.2     
   8 C8             4.4748     0.7150     0.1683 C.2     
   9 N9             3.6688     1.7889     0.2772 N.2     
  10 C10            5.9497     0.7359     0.1472 C.2     
  11 N11            4.1101    -1.7283    -0.0449 N.3     
  12 C12            2.9861    -2.6658     0.0803 C.3     
  13 C13            2.3058    -2.8312    -1.2801 C.3     
  14 C14            6.7247     2.0384     0.2521 C.3     
  15 C15            7.9095     1.9052     1.2266 C.3     
  16 C16            8.6139     1.1539     0.0787 C.3     
  17 C17            8.1664    -0.3129     0.0278 C.3     
  18 C18            6.6585    -0.3870     0.0411 C.2     
  19 C19            3.5050    -4.0231     0.5594 C.3     
  20 C20            2.3343    -4.9995     0.6899 C.3     
  21 C21            1.6541    -5.1649    -0.6706 C.3     
  22 C22            1.1352    -3.8076    -1.1496 C.3     
  23 C23            7.8020     2.0620    -0.8602 C.3     
  24 C24            8.5664     3.2388     1.5883 C.3     
  25 C25            7.6118     1.0317     2.4470 C.3     
  26 H26           -0.9201     1.9622     0.3605 H       
  27 H27           -0.9146    -0.5133     0.1431 H       
  28 H28            1.1767    -1.7228     0.0008 H       
  29 H29            1.1989     3.1808     0.4410 H       
  30 H30            4.6012    -1.8668    -0.9154 H       
  31 H31            2.2670    -2.2767     0.8012 H       
  32 H32            1.9362    -1.8642    -1.6214 H       
  33 H33            3.0249    -3.2203    -2.0010 H       
  34 H34            6.1090     2.9310     0.3636 H       
  35 H35            9.6952     1.2853     0.0404 H       
  36 H36            8.5471    -0.7767    -0.8822 H       
  37 H37            8.5599    -0.8423     0.8956 H       
  38 H38            6.1590    -1.3409    -0.0419 H       
  39 H39            4.2240    -4.4122    -0.1615 H       
  40 H40            3.9896    -3.9053     1.5286 H       
  41 H41            2.7040    -5.9665     1.0312 H       
  42 H42            1.6152    -4.6104     1.4107 H       
  43 H43            2.3731    -5.5540    -1.3915 H       
  44 H44            0.8200    -5.8605    -0.5776 H       
  45 H45            0.4161    -3.4185    -0.4288 H       
  46 H46            0.6505    -3.9254    -2.1188 H       
  47 H47            7.4920     1.5759    -1.7852 H       
  48 H48            8.2490     3.0430    -1.0208 H       
  49 H49            7.8309     3.8897     2.0611 H       
  50 H50            9.3918     3.0621     2.2779 H       
  51 H51            8.9444     3.7148     0.6835 H       
  52 H52            7.3490     0.0261     2.1187 H       
  53 H53            8.4941     0.9865     3.0854 H       
  54 H54            6.7802     1.4602     3.0064 H       
@<TRIPOS>BOND
   1    1    2 1
   2    1    6 2
   3    1   26 1
   4    2    3 2
   5    2   27 1
   6    3    4 1
   7    3   28 1
   8    4    5 1
   9    4    7 1
  10    5    6 1
  11    5    9 2
  12    6   29 1
  13    7    8 2
  14    7   11 1
  15    8    9 1
  16    8   10 1
  17   10   14 1
  18   10   18 2
  19   11   12 1
  20   11   30 1
  21   12   19 1
  22   12   13 1
  23   12   31 1
  24   13   22 1
  25   13   32 1
  26   13   33 1
  27   14   15 1
  28   14   23 1
  29   14   34 1
  30   15   16 1
  31   15   24 1
  32   15   25 1
  33   16   17 1
  34   16   23 1
  35   16   35 1
  36   17   18 1
  37   17   36 1
  38   17   37 1
  39   18   38 1
  40   19   20 1
  41   19   39 1
  42   19   40 1
  43   20   21 1
  44   20   41 1
  45   20   42 1
  46   21   22 1
  47   21   43 1
  48   21   44 1
  49   22   45 1
  50   22   46 1
  51   23   47 1
  52   23   48 1
  53   24   49 1
  54   24   50 1
  55   24   51 1
  56   25   52 1
  57   25   53 1
  58   25   54 1

#	End of record

