#	Name: ASD07300606
#	Creating user name:	WinNT
#	Creation time:	15. 06. 2019 21:10

#	Modifying user name:	WinNT
#	Modification time:	15. 06. 2019 21:10

#	Program:	/corina/corina34_cracker 3.40 0067  02.08.2006

@<TRIPOS>MOLECULE
ASD07300606
  54   58    0    0    0
SMALL
NO_CHARGES


@<TRIPOS>ATOM
   1 C1            -0.0034     1.3929     0.2418 C.2     
   2 C2             0.0021    -0.0041     0.0020 C.2     
   3 N3             1.1915     2.0673     0.2268 N.pl3   
   4 N4             1.1441    -0.6203    -0.2281 N.2     
   5 C5             2.3028     0.0466    -0.2404 C.2     
   6 C6             2.3486     1.3753    -0.0180 C.2     
   7 N7            -0.9698     2.2587     0.5009 N.2     
   8 C8            -0.4502     3.4737     0.6498 C.2     
   9 C9             0.9151     3.3826     0.4827 C.2     
  10 N10           -1.1861    -0.7177     0.0100 N.pl3   
  11 C11           -2.4814    -0.0308     0.1360 C.3     
  12 C12           -3.4039    -0.5296    -0.9821 C.3     
  13 O13           -3.4384    -1.9586    -0.9615 O.3     
  14 C14           -2.1751    -2.5783    -1.2140 C.3     
  15 C15           -1.1899    -2.1840    -0.1135 C.3     
  16 C16            1.6349     5.7076    -0.0639 C.ar    
  17 C17            1.8907     4.4899     0.5660 C.ar    
  18 C18            3.0862     4.3321     1.2793 C.ar    
  19 C19            3.9661     5.3961     1.3286 C.ar    
  20 C20            3.6400     6.5783     0.6748 C.ar    
  21 N21            2.5026     6.6966     0.0095 N.ar    
  22 O22            4.5005     7.6267     0.7199 O.3     
  23 C23            4.1113     8.8155     0.0291 C.3     
  24 C24            5.1991     9.8791     0.1917 C.3     
  25 O25            6.3950     9.4400    -0.4557 O.3     
  26 C26            7.4797    10.3657    -0.3629 C.3     
  27 C27           -1.2207     4.7326     0.9539 C.3     
  28 C28           -2.2922     5.1647    -0.0491 C.3     
  29 C29           -2.7022     4.5863     1.3067 C.3     
  30 H30            3.2203    -0.4899    -0.4324 H       
  31 H31            3.2959     1.8937    -0.0324 H       
  32 H32           -2.9243    -0.2575     1.1059 H       
  33 H33           -2.3371     1.0453     0.0402 H       
  34 H34           -4.4094    -0.1388    -0.8259 H       
  35 H35           -3.0255    -0.1884    -1.9457 H       
  36 H36           -2.2965    -3.6615    -1.2248 H       
  37 H37           -1.7922    -2.2445    -2.1785 H       
  38 H38           -0.1908    -2.5330    -0.3744 H       
  39 H39           -1.5005    -2.6311     0.8308 H       
  40 H40            0.7189     5.8399    -0.6205 H       
  41 H41            3.3141     3.4019     1.7785 H       
  42 H42            4.8970     5.3102     1.8695 H       
  43 H43            3.9760     8.5930    -1.0293 H       
  44 H44            3.1748     9.1872     0.4449 H       
  45 H45            4.8641    10.8133    -0.2589 H       
  46 H46            5.3970    10.0374     1.2518 H       
  47 H47            7.1919    11.3101    -0.8249 H       
  48 H48            7.7249    10.5342     0.6857 H       
  49 H49            8.3496     9.9591    -0.8787 H       
  50 H50           -0.6579     5.5178     1.4588 H       
  51 H51           -2.4347     6.2342    -0.2038 H       
  52 H52           -2.4399     4.5384    -0.9289 H       
  53 H53           -3.1196     3.5794     1.3189 H       
  54 H54           -3.1145     5.2752     2.0440 H       
@<TRIPOS>BOND
   1    1    2 1
   2    1    3 1
   3    1    7 2
   4    2    4 2
   5    2   10 1
   6    3    6 1
   7    3    9 1
   8    4    5 1
   9    5    6 2
  10    5   30 1
  11    6   31 1
  12    7    8 1
  13    8    9 2
  14    8   27 1
  15    9   17 1
  16   10   11 1
  17   10   15 1
  18   11   12 1
  19   11   32 1
  20   11   33 1
  21   12   13 1
  22   12   34 1
  23   12   35 1
  24   13   14 1
  25   14   15 1
  26   14   36 1
  27   14   37 1
  28   15   38 1
  29   15   39 1
  30   16   17 ar
  31   16   21 ar
  32   16   40 1
  33   17   18 ar
  34   18   19 ar
  35   18   41 1
  36   19   20 ar
  37   19   42 1
  38   20   21 ar
  39   20   22 1
  40   22   23 1
  41   23   24 1
  42   23   43 1
  43   23   44 1
  44   24   25 1
  45   24   45 1
  46   24   46 1
  47   25   26 1
  48   26   47 1
  49   26   48 1
  50   26   49 1
  51   27   28 1
  52   27   29 1
  53   27   50 1
  54   28   29 1
  55   28   51 1
  56   28   52 1
  57   29   53 1
  58   29   54 1

#	End of record

