#	Name: ASD01913781
#	Creating user name:	WinNT
#	Creation time:	15. 06. 2019 20:02

#	Modifying user name:	WinNT
#	Modification time:	15. 06. 2019 20:02

#	Program:	/corina/corina34_cracker 3.40 0067  02.08.2006

@<TRIPOS>MOLECULE
ASD01913781
  37   39    0    0    0
SMALL
NO_CHARGES


@<TRIPOS>ATOM
   1 N1            -0.0086     1.3010    -0.1765 N.ar    
   2 C2            -0.0008     0.0013     0.0493 C.ar    
   3 C3             1.1828    -0.6775     0.2793 C.ar    
   4 C4             2.3767     0.0207     0.2712 C.ar    
   5 C5             2.3374     1.4005     0.0280 C.ar    
   6 C6             1.1005     2.0107    -0.1946 C.ar    
   7 C7             3.5440     2.1715     0.0089 C.1     
   8 C8             4.5331     2.8036    -0.0067 C.1     
   9 C9             5.7397     3.5746    -0.0258 C.ar    
  10 C10            5.6985     4.9556    -0.2693 C.ar    
  11 C11            8.0798     4.9752    -0.0453 C.ar    
  12 N12            8.0856     3.6712     0.1871 N.ar    
  13 C13            6.9747     2.9642     0.2036 C.ar    
  14 C14            6.8882     5.6557    -0.2772 C.ar    
  15 N15            9.2831     5.6766    -0.0513 N.am    
  16 C16            9.4075     7.0108    -0.0448 C.2     
  17 O17           10.6758     7.4361    -0.0530 O.3     
  18 C18           11.5730     6.2881    -0.0668 C.3     
  19 C19           10.6247     5.0735    -0.0594 C.3     
  20 O20            8.4552     7.7654    -0.0331 O.2     
  21 C21           12.4338     6.2954    -1.3317 C.3     
  22 C22           12.4546     6.2813     1.1836 C.3     
  23 H23           -0.9342    -0.5420     0.0552 H       
  24 H24            1.1744    -1.7417     0.4635 H       
  25 H25            3.3150    -0.4842     0.4480 H       
  26 H26            1.0535     3.0730    -0.3835 H       
  27 H27            4.7594     5.4585    -0.4467 H       
  28 H28            7.0191     1.9026     0.3967 H       
  29 H29            6.8943     6.7198    -0.4616 H       
  30 H30           10.7843     4.4687     0.8333 H       
  31 H31           10.7634     4.4740    -0.9591 H       
  32 H32           13.0466     7.1967    -1.3489 H       
  33 H33           13.0792     5.4170    -1.3370 H       
  34 H34           11.7888     6.2777    -2.2102 H       
  35 H35           11.8243     6.2537     2.0724 H       
  36 H36           13.0999     5.4030     1.1684 H       
  37 H37           13.0677     7.1824     1.2008 H       
@<TRIPOS>BOND
   1    1    2 ar
   2    1    6 ar
   3    2    3 ar
   4    2   23 1
   5    3    4 ar
   6    3   24 1
   7    4    5 ar
   8    4   25 1
   9    5    6 ar
  10    5    7 1
  11    6   26 1
  12    7    8 3
  13    8    9 1
  14    9   10 ar
  15    9   13 ar
  16   10   14 ar
  17   10   27 1
  18   11   12 ar
  19   11   15 1
  20   11   14 ar
  21   12   13 ar
  22   13   28 1
  23   14   29 1
  24   15   16 am
  25   15   19 1
  26   16   17 1
  27   16   20 2
  28   17   18 1
  29   18   19 1
  30   18   21 1
  31   18   22 1
  32   19   30 1
  33   19   31 1
  34   21   32 1
  35   21   33 1
  36   21   34 1
  37   22   35 1
  38   22   36 1
  39   22   37 1

#	End of record

