#	Name: ASD01880061
#	Creating user name:	WinNT
#	Creation time:	15. 06. 2019 19:39

#	Modifying user name:	WinNT
#	Modification time:	15. 06. 2019 19:39

#	Program:	/corina/corina34_cracker 3.40 0067  02.08.2006

@<TRIPOS>MOLECULE
ASD01880061
  51   53    0    0    0
SMALL
NO_CHARGES


@<TRIPOS>ATOM
   1 C1            -0.1040     0.7744    -0.9935 C.ar    
   2 C2             0.3019    -0.5377    -0.8422 C.ar    
   3 N3             1.4427    -0.8266    -0.2468 N.ar    
   4 C4             2.2368     0.1147     0.2243 C.ar    
   5 C5             1.8969     1.4495     0.1090 C.ar    
   6 C6             0.7050     1.7920    -0.5106 C.ar    
   7 C7             2.8100     2.5190     0.6507 C.3     
   8 N8             3.7568     2.9261    -0.3904 N.am    
   9 C9             3.3922     3.8985    -1.3244 C.ar    
  10 S10            5.2594     2.2334    -0.4600 S.o2    
  11 C11            5.0434     0.7912    -1.5388 C.3     
  12 C12            6.3169    -0.0566    -1.5180 C.3     
  13 O13            6.0684     3.2142    -1.0947 O.2     
  14 O14            5.5181     1.8228     0.8756 O.2     
  15 C15            2.4145     4.8339    -1.0100 C.ar    
  16 C16            2.0567     5.7943    -1.9356 C.ar    
  17 C17            2.6705     5.8255    -3.1744 C.ar    
  18 C18            3.6442     4.8959    -3.4907 C.ar    
  19 C19            4.0106     3.9361    -2.5678 C.ar    
  20 C20            2.2772     6.8747    -4.1821 C.3     
  21 C21            3.4228     7.8330    -4.3829 C.ar    
  22 C22            3.3159     9.1397    -3.9447 C.ar    
  23 C23            4.3667    10.0186    -4.1289 C.ar    
  24 C24            5.5248     9.5908    -4.7509 C.ar    
  25 C25            5.6321     8.2838    -5.1883 C.ar    
  26 C26            4.5828     7.4037    -5.0001 C.ar    
  27 C27            1.9364     6.2013    -5.5129 C.3     
  28 H28           -1.0373     1.0048    -1.4856 H       
  29 H29           -0.3224    -1.3360    -1.2156 H       
  30 H30            3.1633    -0.1605     0.7063 H       
  31 H31            0.4135     2.8267    -0.6150 H       
  32 H32            2.2176     3.3801     0.9600 H       
  33 H33            3.3584     2.1285     1.5080 H       
  34 H34            4.2036     0.1941    -1.1834 H       
  35 H35            4.8461     1.1256    -2.5573 H       
  36 H36            6.5141    -0.3910    -0.4995 H       
  37 H37            6.1871    -0.9232    -2.1662 H       
  38 H38            7.1567     0.5405    -1.8734 H       
  39 H39            1.9344     4.8098    -0.0428 H       
  40 H40            1.2964     6.5215    -1.6919 H       
  41 H41            4.1217     4.9232    -4.4590 H       
  42 H42            4.7713     3.2106    -2.8153 H       
  43 H43            1.4068     7.4203    -3.8176 H       
  44 H44            2.4111     9.4739    -3.4588 H       
  45 H45            4.2829    11.0397    -3.7872 H       
  46 H46            6.3455    10.2777    -4.8955 H       
  47 H47            6.5367     7.9497    -5.6745 H       
  48 H48            4.6667     6.3826    -5.3418 H       
  49 H49            1.1077     5.5082    -5.3677 H       
  50 H50            1.6518     6.9601    -6.2418 H       
  51 H51            2.8067     5.6557    -5.8774 H       
@<TRIPOS>BOND
   1    1    2 ar
   2    1    6 ar
   3    1   28 1
   4    2    3 ar
   5    2   29 1
   6    3    4 ar
   7    4    5 ar
   8    4   30 1
   9    5    6 ar
  10    5    7 1
  11    6   31 1
  12    7    8 1
  13    7   32 1
  14    7   33 1
  15    8    9 1
  16    8   10 am
  17    9   15 ar
  18    9   19 ar
  19   10   11 1
  20   10   13 2
  21   10   14 2
  22   11   12 1
  23   11   34 1
  24   11   35 1
  25   12   36 1
  26   12   37 1
  27   12   38 1
  28   15   16 ar
  29   15   39 1
  30   16   17 ar
  31   16   40 1
  32   17   18 ar
  33   17   20 1
  34   18   19 ar
  35   18   41 1
  36   19   42 1
  37   20   21 1
  38   20   27 1
  39   20   43 1
  40   21   22 ar
  41   21   26 ar
  42   22   23 ar
  43   22   44 1
  44   23   24 ar
  45   23   45 1
  46   24   25 ar
  47   24   46 1
  48   25   26 ar
  49   25   47 1
  50   26   48 1
  51   27   49 1
  52   27   50 1
  53   27   51 1

#	End of record

