#	Name: ASD01811440
#	Creating user name:	WinNT
#	Creation time:	15. 06. 2019 19:26

#	Modifying user name:	WinNT
#	Modification time:	15. 06. 2019 19:26

#	Program:	/corina/corina34_cracker 3.40 0067  02.08.2006

@<TRIPOS>MOLECULE
ASD01811440
  64   67    0    0    0
SMALL
NO_CHARGES


@<TRIPOS>ATOM
   1 C1            -0.0302     1.4719    -0.0341 C.2     
   2 C2            -0.0137    -0.0029    -0.0589 C.ar    
   3 C3             1.2018    -0.6999    -0.1417 C.ar    
   4 C4             1.1698    -2.0679    -0.1615 C.ar    
   5 C5            -0.0584    -2.7243    -0.0994 C.ar    
   6 N6            -1.1926    -2.0418    -0.0216 N.ar    
   7 C7            -1.2062    -0.7254     0.0054 C.ar    
   8 O8             1.0142     2.0926    -0.0854 O.2     
   9 N9            -1.2032     2.1315     0.0400 N.am    
  10 N10           -0.0946    -4.1083    -0.1196 N.pl3   
  11 C11            1.1524    -4.8724    -0.2058 C.3     
  12 C12            0.8341    -6.3690    -0.2112 C.3     
  13 C13            2.1236    -7.1638    -0.4263 C.3     
  14 C14            0.2101    -6.7625     1.1292 C.3     
  15 N15           -2.3247     4.3134     0.1364 N.pl3   
  16 N16           -1.9067     5.6502     0.1362 N.2     
  17 C17           -0.5900     5.6717     0.0654 C.2     
  18 C18           -0.1325     4.3388     0.0183 C.2     
  19 C19           -1.2188     3.5255     0.0634 C.2     
  20 C20            0.2577     6.8812     0.0394 C.2     
  21 O21            1.4673     6.7771     0.1007 O.2     
  22 N22           -0.3101     8.1001    -0.0523 N.am    
  23 C23            0.5065     9.3165     0.0587 C.3     
  24 C24           -0.0934    10.2157     1.1442 C.3     
  25 C25           -1.5682    10.4754     0.8283 C.3     
  26 C26           -2.3317     9.1491     0.8234 C.3     
  27 C27           -1.7564     8.2377    -0.2713 C.3     
  28 C28           -2.1529    11.3874     1.8759 C.ar    
  29 C29           -2.6835    12.6105     1.5055 C.ar    
  30 C30           -3.2203    13.4502     2.4592 C.ar    
  31 C31           -3.2279    13.0633     3.8008 C.ar    
  32 C32           -2.6912    11.8275     4.1674 C.ar    
  33 C33           -2.1619    10.9955     3.2028 C.ar    
  34 C34           -3.7831    13.9302     4.7963 C.1     
  35 N35           -4.2236    14.6178     5.5859 N.1     
  36 H36            2.1409    -0.1687    -0.1890 H       
  37 H37            2.0876    -2.6337    -0.2249 H       
  38 H38           -2.1476    -0.2005     0.0734 H       
  39 H39           -2.0366     1.6365     0.0769 H       
  40 H40           -0.9455    -4.5719    -0.0768 H       
  41 H41            1.6771    -4.6093    -1.1242 H       
  42 H42            1.7822    -4.6380     0.6524 H       
  43 H43            0.1333    -6.5885    -1.0166 H       
  44 H44            2.8244    -6.9443     0.3792 H       
  45 H45            1.8969    -8.2300    -0.4301 H       
  46 H46            2.5682    -6.8835    -1.3812 H       
  47 H47           -0.0167    -7.8286     1.1254 H       
  48 H48            0.9109    -6.5429     1.9347 H       
  49 H49           -0.7086    -6.1962     1.2825 H       
  50 H50           -3.2426     4.0036     0.1845 H       
  51 H51            0.8980     4.0215    -0.0427 H       
  52 H52            1.5275     9.0478     0.3298 H       
  53 H53            0.5065     9.8449    -0.8947 H       
  54 H54           -0.0101     9.7222     2.1125 H       
  55 H55            0.4452    11.1630     1.1706 H       
  56 H56           -1.6523    10.9465    -0.1510 H       
  57 H57           -2.2274     8.6656     1.7947 H       
  58 H58           -3.3862     9.3371     0.6215 H       
  59 H59           -1.9371     8.6799    -1.2511 H       
  60 H60           -2.2290     7.2570    -0.2180 H       
  61 H61           -2.6769    12.9085     0.4675 H       
  62 H62           -3.6335    14.4049     2.1689 H       
  63 H63           -2.6939    11.5221     5.2034 H       
  64 H64           -1.7502    10.0376     3.4844 H       
@<TRIPOS>BOND
   1    1    2 1
   2    1    8 2
   3    1    9 am
   4    2    3 ar
   5    2    7 ar
   6    3    4 ar
   7    3   36 1
   8    4    5 ar
   9    4   37 1
  10    5    6 ar
  11    5   10 1
  12    6    7 ar
  13    7   38 1
  14    9   19 1
  15    9   39 1
  16   10   11 1
  17   10   40 1
  18   11   12 1
  19   11   41 1
  20   11   42 1
  21   12   13 1
  22   12   14 1
  23   12   43 1
  24   13   44 1
  25   13   45 1
  26   13   46 1
  27   14   47 1
  28   14   48 1
  29   14   49 1
  30   15   16 1
  31   15   19 1
  32   15   50 1
  33   16   17 2
  34   17   18 1
  35   17   20 1
  36   18   19 2
  37   18   51 1
  38   20   21 2
  39   20   22 am
  40   22   23 1
  41   22   27 1
  42   23   24 1
  43   23   52 1
  44   23   53 1
  45   24   25 1
  46   24   54 1
  47   24   55 1
  48   25   26 1
  49   25   28 1
  50   25   56 1
  51   26   27 1
  52   26   57 1
  53   26   58 1
  54   27   59 1
  55   27   60 1
  56   28   29 ar
  57   28   33 ar
  58   29   30 ar
  59   29   61 1
  60   30   31 ar
  61   30   62 1
  62   31   32 ar
  63   31   34 1
  64   32   33 ar
  65   32   63 1
  66   33   64 1
  67   34   35 3

#	End of record

