#	Name: ASD00122031
#	Creating user name:	WinNT
#	Creation time:	15. 06. 2019 18:31

#	Modifying user name:	WinNT
#	Modification time:	15. 06. 2019 18:31

#	Program:	/corina/corina34_cracker 3.40 0067  02.08.2006

@<TRIPOS>MOLECULE
ASD00122031
  33   33    0    0    0
SMALL
NO_CHARGES


@<TRIPOS>ATOM
   1 C1            -0.0167     1.3794     0.0096 C.ar    
   2 C2             0.0021    -0.0041     0.0020 C.ar    
   3 C3             1.2061    -0.6856    -0.0127 C.ar    
   4 C4             2.3966     0.0113    -0.0204 C.ar    
   5 C5             2.3848     1.4070    -0.0132 C.ar    
   6 C6             1.1667     2.0884     0.0021 C.ar    
   7 C7             3.6569     2.1603    -0.0209 C.2     
   8 N8             3.6421     3.5080    -0.0140 N.am    
   9 O9             4.7162     1.5642    -0.0335 O.2     
  10 C10            4.9026     4.2544    -0.0216 C.3     
  11 C11            5.3925     4.4134    -1.4623 C.3     
  12 C12            4.6808     5.6361     0.5971 C.3     
  13 C13            4.3115     5.4805     2.0736 C.3     
  14 C14            5.7330     3.0381    -2.0398 C.3     
  15 N15           -1.2715    -0.7583     0.0102 N.pl3   
  16 O16           -2.3329    -0.1610     0.0236 O.2     
  17 O17           -1.2581    -1.9762     0.0035 O.2     
  18 H18           -0.9599     1.9054     0.0170 H       
  19 H19            1.2138    -1.7656    -0.0179 H       
  20 H20            3.3358    -0.5219    -0.0315 H       
  21 H21            1.1507     3.1682     0.0074 H       
  22 H22            2.7968     3.9836    -0.0040 H       
  23 H23            5.6494     3.7123     0.5584 H       
  24 H24            4.6097     4.8761    -2.0633 H       
  25 H25            6.2817     5.0436    -1.4762 H       
  26 H26            5.5949     6.2236     0.5112 H       
  27 H27            3.8719     6.1438     0.0717 H       
  28 H28            4.1535     6.4648     2.5143 H       
  29 H29            3.3974     4.8929     2.1595 H       
  30 H30            5.1204     4.9728     2.5989 H       
  31 H31            6.0821     3.1513    -3.0662 H       
  32 H32            6.5158     2.5753    -1.4388 H       
  33 H33            4.8438     2.4078    -2.0259 H       
@<TRIPOS>BOND
   1    1    2 ar
   2    1    6 ar
   3    1   18 1
   4    2    3 ar
   5    2   15 1
   6    3    4 ar
   7    3   19 1
   8    4    5 ar
   9    4   20 1
  10    5    6 ar
  11    5    7 1
  12    6   21 1
  13    7    8 am
  14    7    9 2
  15    8   10 1
  16    8   22 1
  17   10   11 1
  18   10   12 1
  19   10   23 1
  20   11   14 1
  21   11   24 1
  22   11   25 1
  23   12   13 1
  24   12   26 1
  25   12   27 1
  26   13   28 1
  27   13   29 1
  28   13   30 1
  29   14   31 1
  30   14   32 1
  31   14   33 1
  32   15   16 2
  33   15   17 2

#	End of record

