#	Name: ASD01840353
#	Creating user name:	WinNT
#	Creation time:	15. 06. 2019 19:37

#	Modifying user name:	WinNT
#	Modification time:	15. 06. 2019 19:37

#	Program:	/corina/corina34_cracker 3.40 0067  02.08.2006

@<TRIPOS>MOLECULE
ASD01840353
  48   51    0    0    0
SMALL
NO_CHARGES


@<TRIPOS>ATOM
   1 C1             0.0502     1.4051    -1.0993 C.ar    
   2 C2             0.1091     0.1864    -1.7389 C.ar    
   3 N3             1.2076    -0.5463    -1.6748 N.ar    
   4 N4             2.2503    -0.1729    -1.0317 N.ar    
   5 C5             1.1906     1.8359    -0.3838 C.ar    
   6 C6             1.4164     3.0522     0.3749 C.2     
   7 C7             2.3066     0.9884    -0.3755 C.ar    
   8 S8             3.6045     1.7112     0.5643 S.3     
   9 C9             2.6477     3.1316     0.9376 C.2     
  10 C10           -1.1913     2.2568    -1.1657 C.3     
  11 C11           -1.0829    -0.3135    -2.5137 C.3     
  12 N12            0.4571     4.0464     0.5122 N.pl3   
  13 C13            3.1161     4.2551     1.7476 C.2     
  14 O14            2.4330     5.2576     1.8510 O.2     
  15 N15            4.3041     4.1809     2.3799 N.am    
  16 C16            5.2604     3.0631     2.2835 C.3     
  17 C17            6.0942     3.1410     3.5867 C.3     
  18 C18            6.2209     4.6747     3.7842 C.3     
  19 C19            4.8637     5.2043     3.2750 C.3     
  20 C20            5.0671     6.5120     2.5074 C.3     
  21 C21            6.4155     5.0105     5.2404 C.ar    
  22 C22            7.5408     5.7038     5.6455 C.ar    
  23 C23            7.7193     6.0117     6.9812 C.ar    
  24 C24            6.7723     5.6268     7.9118 C.ar    
  25 C25            5.6466     4.9343     7.5066 C.ar    
  26 C26            5.4660     4.6301     6.1703 C.ar    
  27 H27           -1.8008     2.0804    -0.2794 H       
  28 H28           -0.9085     3.3086    -1.2088 H       
  29 H29           -1.7626     1.9974    -2.0571 H       
  30 H30           -1.0136     0.0273    -3.5467 H       
  31 H31           -1.1001    -1.4031    -2.4910 H       
  32 H32           -1.9971     0.0738    -2.0639 H       
  33 H33           -0.4758     3.8478     0.3359 H       
  34 H34            0.7199     4.9395     0.7845 H       
  35 H35            4.7291     2.1129     2.2292 H       
  36 H36            5.9044     3.1889     1.4131 H       
  37 H37            5.5610     2.6826     4.4196 H       
  38 H38            7.0736     2.6822     3.4519 H       
  39 H39            7.0371     5.0749     3.1827 H       
  40 H40            4.1917     5.3673     4.1176 H       
  41 H41            4.1055     6.8720     2.1416 H       
  42 H42            5.5059     7.2579     3.1702 H       
  43 H43            5.7348     6.3380     1.6636 H       
  44 H44            8.2806     6.0045     4.9184 H       
  45 H45            8.5987     6.5528     7.2978 H       
  46 H46            6.9121     5.8668     8.9555 H       
  47 H47            4.9070     4.6333     8.2337 H       
  48 H48            4.5848     4.0923     5.8532 H       
@<TRIPOS>BOND
   1    1    2 ar
   2    1    5 ar
   3    1   10 1
   4    2   11 1
   5    2    3 ar
   6    3    4 ar
   7    4    7 ar
   8    5    7 ar
   9    5    6 1
  10    6    9 2
  11    6   12 1
  12    7    8 1
  13    8    9 1
  14    9   13 1
  15   10   27 1
  16   10   28 1
  17   10   29 1
  18   11   30 1
  19   11   31 1
  20   11   32 1
  21   12   33 1
  22   12   34 1
  23   13   14 2
  24   13   15 am
  25   15   16 1
  26   15   19 1
  27   16   17 1
  28   16   35 1
  29   16   36 1
  30   17   18 1
  31   17   37 1
  32   17   38 1
  33   18   19 1
  34   18   21 1
  35   18   39 1
  36   19   20 1
  37   19   40 1
  38   20   41 1
  39   20   42 1
  40   20   43 1
  41   21   22 ar
  42   21   26 ar
  43   22   23 ar
  44   22   44 1
  45   23   24 ar
  46   23   45 1
  47   24   25 ar
  48   24   46 1
  49   25   26 ar
  50   25   47 1
  51   26   48 1

#	End of record

