#	Name: ASD01208994
#	Creating user name:	WinNT
#	Creation time:	15. 06. 2019 19:10

#	Modifying user name:	WinNT
#	Modification time:	15. 06. 2019 19:10

#	Program:	/corina/corina34_cracker 3.40 0067  02.08.2006

@<TRIPOS>MOLECULE
ASD01208994
  54   58    0    0    0
SMALL
NO_CHARGES


@<TRIPOS>ATOM
   1 C1             0.5056     1.3865    -2.3271 C.3     
   2 C2             0.1874    -0.1160    -2.4229 C.3     
   3 C3            -0.7206    -0.5343    -1.2648 C.3     
   4 C4            -0.8797    -2.0560    -1.2655 C.3     
   5 C5            -1.6543    -2.4807    -0.0445 C.2     
   6 N6            -1.1222    -2.3143     1.1826 N.am    
   7 C7            -1.7875    -2.8047     2.3015 C.2     
   8 N8            -1.6020    -2.4709    -2.4706 N.pl3   
   9 C9            -1.1195    -3.3165    -3.4352 C.ar    
  10 C10           -2.1316    -3.4428    -4.4066 C.ar    
  11 C11           -3.2434    -2.6149    -3.9503 C.2     
  12 N12           -2.8969    -2.0722    -2.8182 N.2     
  13 O13           -2.7564    -2.9721    -0.1660 O.2     
  14 C14            0.0798    -4.0035    -3.6037 C.ar    
  15 C15            0.2636    -4.7908    -4.7051 C.ar    
  16 C16           -0.7334    -4.9167    -5.6643 C.ar    
  17 C17           -1.9197    -4.2559    -5.5252 C.ar    
  18 C18           -4.5387    -5.2558    -5.8879 C.3     
  19 C19           -5.7587    -5.6581    -6.7188 C.3     
  20 C20           -4.7879    -6.7290    -6.2172 C.3     
  21 C21           -0.5392    -0.3277    -3.7672 C.3     
  22 C22           -0.0859     0.8711    -4.6370 C.3     
  23 C23           -0.0388     2.0353    -3.6165 C.3     
  24 N24           -1.3734    -2.7040     3.5272 N.2     
  25 C25           -2.1399    -3.2307     4.4639 C.2     
  26 C26           -3.2630    -3.8111     4.0355 C.2     
  27 S27           -3.3302    -3.6548     2.2813 S.3     
  28 F28           -4.1904    -4.4114     4.8131 F       
  29 S29           -3.1760    -4.4239    -6.7491 S.o2    
  30 O30           -3.5324    -3.0865    -7.0714 O.2     
  31 O31           -2.6029    -5.2845    -7.7239 O.2     
  32 H32            0.0131     1.8176    -1.4555 H       
  33 H33            1.5831     1.5364    -2.2599 H       
  34 H34            1.1105    -0.6952    -2.4014 H       
  35 H35           -0.2765    -0.2159    -0.3216 H       
  36 H36           -1.6981    -0.0667    -1.3823 H       
  37 H37            0.1045    -2.5243    -1.2525 H       
  38 H38           -0.2754    -1.8526     1.2855 H       
  39 H39           -4.1868    -2.4800    -4.4584 H       
  40 H40            0.8631    -3.9140    -2.8656 H       
  41 H41            1.1956    -5.3216    -4.8318 H       
  42 H42           -0.5686    -5.5440    -6.5279 H       
  43 H43           -4.7131    -4.9326    -4.8616 H       
  44 H44           -6.7357    -5.6001    -6.2391 H       
  45 H45           -5.7426    -5.4230    -7.7830 H       
  46 H46           -4.1330    -7.1983    -6.9514 H       
  47 H47           -5.1262    -7.3754    -5.4074 H       
  48 H48           -0.2309    -1.2683    -4.2235 H       
  49 H49           -1.6196    -0.3082    -3.6240 H       
  50 H50            0.9015     0.6890    -5.0611 H       
  51 H51           -0.8133     1.0753    -5.4226 H       
  52 H52           -1.0384     2.4365    -3.4490 H       
  53 H53            0.6347     2.8192    -3.9628 H       
  54 H54           -1.8750    -3.1946     5.5103 H       
@<TRIPOS>BOND
   1    1    2 1
   2    1   23 1
   3    1   32 1
   4    1   33 1
   5    2    3 1
   6    2   21 1
   7    2   34 1
   8    3    4 1
   9    3   35 1
  10    3   36 1
  11    4    5 1
  12    4    8 1
  13    4   37 1
  14    5    6 am
  15    5   13 2
  16    6    7 1
  17    6   38 1
  18    7   24 2
  19    7   27 1
  20    8    9 1
  21    8   12 1
  22    9   10 ar
  23    9   14 ar
  24   10   11 1
  25   10   17 ar
  26   11   12 2
  27   11   39 1
  28   14   15 ar
  29   14   40 1
  30   15   16 ar
  31   15   41 1
  32   16   17 ar
  33   16   42 1
  34   17   29 1
  35   18   19 1
  36   18   29 1
  37   18   20 1
  38   18   43 1
  39   19   20 1
  40   19   44 1
  41   19   45 1
  42   20   46 1
  43   20   47 1
  44   21   22 1
  45   21   48 1
  46   21   49 1
  47   22   23 1
  48   22   50 1
  49   22   51 1
  50   23   52 1
  51   23   53 1
  52   24   25 1
  53   25   26 2
  54   25   54 1
  55   26   27 1
  56   26   28 1
  57   29   30 2
  58   29   31 2

#	End of record

