#	Name: ASD01940711
#	Creating user name:	WinNT
#	Creation time:	15. 06. 2019 20:13

#	Modifying user name:	WinNT
#	Modification time:	15. 06. 2019 20:13

#	Program:	/corina/corina34_cracker 3.40 0067  02.08.2006

@<TRIPOS>MOLECULE
ASD01940711
  53   55    0    0    0
SMALL
NO_CHARGES


@<TRIPOS>ATOM
   1 C1             0.5661     0.5070    -1.2519 C.ar    
   2 C2            -0.0986    -0.0060    -0.1533 C.ar    
   3 C3             0.4806     0.0568     1.1026 C.ar    
   4 C4             1.7298     0.6344     1.2643 C.ar    
   5 C5             2.4022     1.1508     0.1646 C.ar    
   6 C6             1.8169     1.0863    -1.0988 C.ar    
   7 N7             2.4911     1.6054    -2.2121 N.am    
   8 S8             1.6355     2.1085    -3.5378 S.o2    
   9 C9             0.7203     3.5642    -2.9602 C.3     
  10 O10            2.6335     2.4868    -4.4760 O.2     
  11 O11            0.7451     1.0346    -3.8083 O.2     
  12 F12           -0.1735    -0.4456     2.1726 F       
  13 F13            2.2928     0.6954     2.4909 F       
  14 N14            3.6658     1.7362     0.3247 N.pl3   
  15 C15            4.8194     0.9744     0.1220 C.ar    
  16 C16            6.0670     1.5012     0.4378 C.ar    
  17 C17            4.7224    -0.3129    -0.3899 C.ar    
  18 C18            5.8650    -1.0637    -0.5887 C.ar    
  19 C19            7.1044    -0.5353    -0.2787 C.ar    
  20 C20            7.2053     0.7446     0.2363 C.ar    
  21 Cl21           6.1941     3.1076     1.0837 Cl      
  22 C22           -0.1352     4.1520    -4.1015 C.3     
  23 C23           -0.0771     5.6823    -3.9511 C.3     
  24 C24            0.8117     5.9710    -2.7237 C.3     
  25 C25            1.6977     4.7076    -2.5906 C.3     
  26 O26            0.4984     6.2675    -5.1208 O.3     
  27 C27            8.3481    -1.3579    -0.4967 C.3     
  28 C28            8.8807    -1.1126    -1.9099 C.3     
  29 C29           10.1433    -1.9478    -2.1312 C.3     
  30 O30           10.6408    -1.7187    -3.4511 O.3     
  31 H31            0.1129     0.4525    -2.2306 H       
  32 H32           -1.0725    -0.4567    -0.2752 H       
  33 H33            3.4589     1.6702    -2.2063 H       
  34 H34            0.0927     3.3055    -2.1073 H       
  35 H35            3.7393     2.6701     0.5762 H       
  36 H36            3.7548    -0.7269    -0.6321 H       
  37 H37            5.7898    -2.0649    -0.9865 H       
  38 H38            8.1751     1.1543     0.4770 H       
  39 H39            0.2756     3.8558    -5.0666 H       
  40 H40           -1.1652     3.8068    -4.0118 H       
  41 H41           -1.0789     6.0798    -3.7885 H       
  42 H42            1.4283     6.8527    -2.8982 H       
  43 H43            0.1992     6.1032    -1.8318 H       
  44 H44            2.0565     4.5934    -1.5677 H       
  45 H45            2.5314     4.7448    -3.2917 H       
  46 H46            0.5626     7.2318    -5.0872 H       
  47 H47            9.1060    -1.0708     0.2321 H       
  48 H48            8.1103    -2.4149    -0.3764 H       
  49 H49            8.1228    -1.3997    -2.6387 H       
  50 H50            9.1185    -0.0557    -2.0302 H       
  51 H51           10.9013    -1.6607    -1.4024 H       
  52 H52            9.9055    -3.0048    -2.0109 H       
  53 H53           11.4422    -2.2172    -3.6614 H       
@<TRIPOS>BOND
   1    1    2 ar
   2    1    6 ar
   3    1   31 1
   4    2    3 ar
   5    2   32 1
   6    3    4 ar
   7    3   12 1
   8    4    5 ar
   9    4   13 1
  10    5    6 ar
  11    5   14 1
  12    6    7 1
  13    7    8 am
  14    7   33 1
  15    8   10 2
  16    8   11 2
  17    8    9 1
  18    9   22 1
  19    9   25 1
  20    9   34 1
  21   14   15 1
  22   14   35 1
  23   15   16 ar
  24   15   17 ar
  25   16   21 1
  26   16   20 ar
  27   17   18 ar
  28   17   36 1
  29   18   19 ar
  30   18   37 1
  31   19   20 ar
  32   19   27 1
  33   20   38 1
  34   22   23 1
  35   22   39 1
  36   22   40 1
  37   23   24 1
  38   23   26 1
  39   23   41 1
  40   24   25 1
  41   24   42 1
  42   24   43 1
  43   25   44 1
  44   25   45 1
  45   26   46 1
  46   27   28 1
  47   27   47 1
  48   27   48 1
  49   28   29 1
  50   28   49 1
  51   28   50 1
  52   29   30 1
  53   29   51 1
  54   29   52 1
  55   30   53 1

#	End of record

