#	Name: ASD02508069
#	Creating user name:	WinNT
#	Creation time:	15. 06. 2019 20:23

#	Modifying user name:	WinNT
#	Modification time:	15. 06. 2019 20:23

#	Program:	/corina/corina34_cracker 3.40 0067  02.08.2006

@<TRIPOS>MOLECULE
ASD02508069
  43   45    0    0    0
SMALL
NO_CHARGES


@<TRIPOS>ATOM
   1 C1            -0.2580     0.4774    -0.3446 C.ar    
   2 C2             0.0230    -0.8601    -0.1132 C.ar    
   3 C3             0.7804     1.3994    -0.4737 C.ar    
   4 C4             2.0953     0.9746    -0.3696 C.ar    
   5 C5             2.3722    -0.3646    -0.1377 C.ar    
   6 C6             1.3341    -1.2805    -0.0103 C.ar    
   7 N7            -1.4478     1.1931    -0.4998 N.am    
   8 C8            -1.1191     2.4838    -0.7059 C.2     
   9 O9             0.2168     2.6129    -0.6920 O.3     
  10 N10            3.6992    -0.7948    -0.0325 N.am    
  11 S11            4.8735    -0.0934    -0.9659 S.o2    
  12 C12            4.4299    -0.3607    -2.6501 C.ar    
  13 C13            4.3789    -1.6508    -3.1582 C.ar    
  14 O14           -1.9104     3.3904    -0.8815 O.2     
  15 O15            4.7797     1.3069    -0.7437 O.2     
  16 O16            6.0628    -0.8381    -0.7412 O.2     
  17 C17            1.6403    -2.7344     0.2416 C.3     
  18 C18            4.1273     0.7135    -3.4639 C.ar    
  19 C19            3.7785     0.5040    -4.7866 C.ar    
  20 C20            3.7326    -0.7812    -5.2965 C.ar    
  21 C21            4.0295    -1.8587    -4.4843 C.ar    
  22 C22           -2.8041     0.6416    -0.4484 C.3     
  23 C23           -3.3189     0.6870     0.9917 C.3     
  24 Cl24           3.3974     1.8557    -5.8071 Cl      
  25 O25            4.6714    -2.7095    -2.3575 O.3     
  26 C26            4.5984    -4.0089    -2.9477 C.3     
  27 H27           -0.7827    -1.5724    -0.0132 H       
  28 H28            2.9029     1.6848    -0.4692 H       
  29 H29            3.9314    -1.5040     0.5873 H       
  30 H30            1.6884    -2.9148     1.3155 H       
  31 H31            0.8558    -3.3520    -0.1958 H       
  32 H32            2.5981    -2.9880    -0.2127 H       
  33 H33            4.1626     1.7175    -3.0676 H       
  34 H34            3.4601    -0.9426    -6.3291 H       
  35 H35            3.9939    -2.8618    -4.8828 H       
  36 H36           -3.4607     1.2316    -1.0878 H       
  37 H37           -2.7898    -0.3911    -0.7967 H       
  38 H38           -2.6623     0.0970     1.6310 H       
  39 H39           -3.3332     1.7198     1.3400 H       
  40 H40           -4.3280     0.2767     1.0299 H       
  41 H41            3.5861    -4.1869    -3.3105 H       
  42 H42            5.2988    -4.0694    -3.7808 H       
  43 H43            4.8548    -4.7615    -2.2021 H       
@<TRIPOS>BOND
   1    1    2 ar
   2    1    3 ar
   3    1    7 1
   4    2    6 ar
   5    2   27 1
   6    3    4 ar
   7    3    9 1
   8    4    5 ar
   9    4   28 1
  10    5    6 ar
  11    5   10 1
  12    6   17 1
  13    7    8 am
  14    7   22 1
  15    8    9 1
  16    8   14 2
  17   10   11 am
  18   10   29 1
  19   11   12 1
  20   11   15 2
  21   11   16 2
  22   12   13 ar
  23   12   18 ar
  24   13   25 1
  25   13   21 ar
  26   17   30 1
  27   17   31 1
  28   17   32 1
  29   18   19 ar
  30   18   33 1
  31   19   20 ar
  32   19   24 1
  33   20   21 ar
  34   20   34 1
  35   21   35 1
  36   22   23 1
  37   22   36 1
  38   22   37 1
  39   23   38 1
  40   23   39 1
  41   23   40 1
  42   25   26 1
  43   26   41 1
  44   26   42 1
  45   26   43 1

#	End of record

