#	Name: ASD02408022
#	Creating user name:	WinNT
#	Creation time:	15. 06. 2019 20:21

#	Modifying user name:	WinNT
#	Modification time:	15. 06. 2019 20:21

#	Program:	/corina/corina34_cracker 3.40 0067  02.08.2006

@<TRIPOS>MOLECULE
ASD02408022
  46   48    0    0    0
SMALL
NO_CHARGES


@<TRIPOS>ATOM
   1 C1             0.5434     0.6199    -0.0810 C.ar    
   2 C2             0.8127    -0.7156    -0.3125 C.ar    
   3 C3             1.6679     1.6230    -0.0624 C.3     
   4 C4             1.8793     2.1664    -1.4521 C.2     
   5 N5             2.8455     3.0834    -1.6526 N.am    
   6 N6             1.1236     1.7288    -2.4224 N.2     
   7 C7             1.2664     2.1753    -3.6768 C.2     
   8 C8             2.2519     3.1367    -3.9559 C.2     
   9 C9             3.0626     3.5911    -2.8841 C.2     
  10 N10            0.4585     1.6982    -4.6796 N.pl3   
  11 O11            3.9326     4.4242    -3.0704 O.2     
  12 C12           -0.2199    -1.6365    -0.3300 C.ar    
  13 C13           -1.5214    -1.2196    -0.1156 C.ar    
  14 C14           -1.7896     0.1166     0.1159 C.ar    
  15 C15           -0.7582     1.0367     0.1280 C.ar    
  16 Cl16           0.1176    -3.3143    -0.6213 Cl      
  17 C17           -0.9725     1.4657    -4.4412 C.3     
  18 C18            1.0076     1.4162    -6.0129 C.3     
  19 C19            0.6508    -0.0227    -6.3988 C.3     
  20 C20           -0.8634    -0.2156    -6.2889 C.3     
  21 C21           -1.3115     0.0263    -4.8412 C.3     
  22 C22           -1.5723     0.7811    -7.2081 C.3     
  23 C23           -1.2273    -1.6418    -6.7068 C.3     
  24 C24            2.4362     3.6392    -5.2841 C.1     
  25 N25            2.5824     4.0379    -6.3377 N.1     
  26 H26            1.8290    -1.0405    -0.4801 H       
  27 H27            1.4145     2.4404     0.6127 H       
  28 H28            2.5817     1.1381     0.2810 H       
  29 H29            3.3889     3.3813    -0.9064 H       
  30 H30           -2.3278    -1.9378    -0.1295 H       
  31 H31           -2.8056     0.4422     0.2832 H       
  32 H32           -0.9682     2.0805     0.3092 H       
  33 H33           -1.1957     1.6135    -3.3846 H       
  34 H34           -1.5604     2.1599    -5.0416 H       
  35 H35            0.5775     2.1065    -6.7386 H       
  36 H36            2.0913     1.5314    -5.9937 H       
  37 H37            0.9684    -0.2139    -7.4238 H       
  38 H38            1.1556    -0.7157    -5.7257 H       
  39 H39           -0.7897    -0.6641    -4.1786 H       
  40 H40           -2.3866    -0.1346    -4.7614 H       
  41 H41           -1.2582     0.6123    -8.2381 H       
  42 H42           -2.6508     0.6439    -7.1299 H       
  43 H43           -1.3128     1.7973    -6.9110 H       
  44 H44           -0.7219    -2.3522    -6.0526 H       
  45 H45           -2.3057    -1.7793    -6.6286 H       
  46 H46           -0.9133    -1.8098    -7.7370 H       
@<TRIPOS>BOND
   1    1    2 ar
   2    1    3 1
   3    1   15 ar
   4    2   12 ar
   5    2   26 1
   6    3    4 1
   7    3   27 1
   8    3   28 1
   9    4    5 1
  10    4    6 2
  11    5    9 am
  12    5   29 1
  13    6    7 1
  14    7    8 2
  15    7   10 1
  16    8    9 1
  17    8   24 1
  18    9   11 2
  19   10   18 1
  20   10   17 1
  21   12   13 ar
  22   12   16 1
  23   13   14 ar
  24   13   30 1
  25   14   15 ar
  26   14   31 1
  27   15   32 1
  28   17   21 1
  29   17   33 1
  30   17   34 1
  31   18   19 1
  32   18   35 1
  33   18   36 1
  34   19   20 1
  35   19   37 1
  36   19   38 1
  37   20   21 1
  38   20   22 1
  39   20   23 1
  40   21   39 1
  41   21   40 1
  42   22   41 1
  43   22   42 1
  44   22   43 1
  45   23   44 1
  46   23   45 1
  47   23   46 1
  48   24   25 3

#	End of record

