#	Name: ASD02448085
#	Creating user name:	WinNT
#	Creation time:	15. 06. 2019 20:21

#	Modifying user name:	WinNT
#	Modification time:	15. 06. 2019 20:21

#	Program:	/corina/corina34_cracker 3.40 0067  02.08.2006

@<TRIPOS>MOLECULE
ASD02448085
  84   91    0    0    0
SMALL
NO_CHARGES


@<TRIPOS>ATOM
   1 C1            -0.0628    -6.5974     3.0999 C.ar    
   2 C2             0.4287    -5.4620     2.4852 C.ar    
   3 C3             0.3412    -5.3237     1.1059 C.ar    
   4 C4            -0.2403    -6.3268     0.3451 C.ar    
   5 C5            -0.7333    -7.4667     0.9652 C.ar    
   6 C6            -0.6428    -7.5990     2.3453 C.ar    
   7 N7            -1.3201    -8.4792     0.2027 N.am    
   8 C8            -1.4383    -9.9052     0.5338 C.3     
   9 C9            -2.1371   -10.6591    -0.5513 C.2     
  10 N10           -2.5166    -9.9133    -1.5985 N.am    
  11 S11           -2.0538    -8.3444    -1.2896 S.o2    
  12 O12           -2.3442   -11.8524    -0.4893 O.2     
  13 O13           -3.2413    -7.5840    -1.1139 O.2     
  14 O14           -1.0332    -8.0169    -2.2224 O.2     
  15 N15            0.8399    -4.1707     0.4833 N.pl3   
  16 C16            1.7730    -4.1276    -0.5180 C.2     
  17 C17            0.4828    -2.8884     0.7573 C.2     
  18 N18            1.1557    -2.0878    -0.0211 N.2     
  19 C19            1.9610    -2.8167    -0.8205 C.2     
  20 C20            2.8879    -2.2816    -1.8480 C.ar    
  21 C21            2.9824    -0.9057    -2.0568 C.ar    
  22 C22            3.6712    -3.1514    -2.6036 C.ar    
  23 C23            4.5324    -2.6488    -3.5580 C.ar    
  24 C24            4.6191    -1.2829    -3.7656 C.ar    
  25 C25            3.8472    -0.4133    -3.0142 C.ar    
  26 C26           -0.5262    -2.4615     1.7921 C.3     
  27 C27           -1.8702    -2.2754     1.1364 C.ar    
  28 C28           -2.7084    -3.3619     0.9626 C.ar    
  29 C29           -2.2634    -1.0177     0.7157 C.ar    
  30 C30           -3.4935    -0.8413     0.1153 C.ar    
  31 C31           -4.3399    -1.9333    -0.0671 C.ar    
  32 C32           -3.9406    -3.1973     0.3631 C.ar    
  33 C33           -5.6633    -1.7499    -0.7118 C.ar    
  34 C34           -6.5087    -2.8434    -0.8935 C.ar    
  35 C35           -6.0656    -0.4830    -1.1316 C.ar    
  36 C36           -7.2958    -0.3148    -1.7305 C.ar    
  37 C37           -8.1350    -1.4075    -1.9160 C.ar    
  38 C38           -7.7380    -2.6709    -1.4929 C.ar    
  39 Cl39           2.0144     0.1854    -1.1154 Cl      
  40 N40           -9.3800    -1.2350    -2.5226 N.3     
  41 Cl41           5.7044    -0.6579    -4.9677 Cl      
  42 C42           -9.3155    -0.2082    -3.5787 C.3     
  43 C43           -9.7987    -0.8676    -4.8876 C.3     
  44 C44          -10.6462    -2.0653    -4.3833 C.3     
  45 C45           -9.8563    -2.4991    -3.1234 C.3     
  46 C46          -10.6803    -3.1712    -5.4065 C.ar    
  47 C47          -11.8902    -3.6053    -5.9149 C.ar    
  48 C48          -11.9215    -4.6198    -6.8534 C.ar    
  49 C49          -10.7428    -5.1999    -7.2838 C.ar    
  50 C50           -9.5329    -4.7651    -6.7760 C.ar    
  51 C51           -9.5013    -3.7477    -5.8407 C.ar    
  52 H52            0.0106    -6.7043     4.1721 H       
  53 H53            0.8812    -4.6807     3.0779 H       
  54 H54           -0.3097    -6.2212    -0.7274 H       
  55 H55           -1.0261    -8.4855     2.8286 H       
  56 H56           -0.4414   -10.3230     0.6739 H       
  57 H57           -2.0011   -10.0108     1.4613 H       
  58 H58           -2.9791   -10.2296    -2.3904 H       
  59 H59            2.2647    -4.9722    -0.9778 H       
  60 H60            3.6049    -4.2172    -2.4426 H       
  61 H61            5.1401    -3.3225    -4.1438 H       
  62 H62            3.9184     0.6515    -3.1799 H       
  63 H63           -0.6014    -3.2275     2.5639 H       
  64 H64           -0.2086    -1.5213     2.2431 H       
  65 H65           -2.3979    -4.3410     1.2963 H       
  66 H66           -1.6066    -0.1721     0.8576 H       
  67 H67           -3.7998     0.1413    -0.2121 H       
  68 H68           -4.5924    -4.0471     0.2239 H       
  69 H69           -6.2005    -3.8251    -0.5653 H       
  70 H70           -5.4142     0.3663    -0.9874 H       
  71 H71           -7.6081     0.6667    -2.0556 H       
  72 H72           -8.3914    -3.5185    -1.6379 H       
  73 H73           -9.9658     0.6283    -3.3229 H       
  74 H74           -8.2891     0.1395    -3.6957 H       
  75 H75          -10.4135    -0.1759    -5.4635 H       
  76 H76           -8.9521    -1.2165    -5.4788 H       
  77 H77          -11.6552    -1.7468    -4.1212 H       
  78 H78           -9.0114    -3.1283    -3.4032 H       
  79 H79          -10.5099    -3.0268    -2.4288 H       
  80 H80          -12.8111    -3.1522    -5.5787 H       
  81 H81          -12.8668    -4.9595    -7.2502 H       
  82 H82          -10.7673    -5.9929    -8.0165 H       
  83 H83           -8.6120    -5.2185    -7.1119 H       
  84 H84           -8.5560    -3.4080    -5.4440 H       
@<TRIPOS>BOND
   1    1    2 ar
   2    1    6 ar
   3    1   52 1
   4    2    3 ar
   5    2   53 1
   6    3    4 ar
   7    3   15 1
   8    4    5 ar
   9    4   54 1
  10    5    6 ar
  11    5    7 1
  12    6   55 1
  13    7    8 1
  14    7   11 am
  15    8    9 1
  16    8   56 1
  17    8   57 1
  18    9   10 am
  19    9   12 2
  20   10   11 am
  21   10   58 1
  22   11   13 2
  23   11   14 2
  24   15   16 1
  25   15   17 1
  26   16   19 2
  27   16   59 1
  28   17   18 2
  29   17   26 1
  30   18   19 1
  31   19   20 1
  32   20   21 ar
  33   20   22 ar
  34   21   39 1
  35   21   25 ar
  36   22   23 ar
  37   22   60 1
  38   23   24 ar
  39   23   61 1
  40   24   25 ar
  41   24   41 1
  42   25   62 1
  43   26   27 1
  44   26   63 1
  45   26   64 1
  46   27   28 ar
  47   27   29 ar
  48   28   32 ar
  49   28   65 1
  50   29   30 ar
  51   29   66 1
  52   30   31 ar
  53   30   67 1
  54   31   32 ar
  55   31   33 1
  56   32   68 1
  57   33   34 ar
  58   33   35 ar
  59   34   38 ar
  60   34   69 1
  61   35   36 ar
  62   35   70 1
  63   36   37 ar
  64   36   71 1
  65   37   38 ar
  66   37   40 1
  67   38   72 1
  68   40   42 1
  69   40   45 1
  70   42   43 1
  71   42   73 1
  72   42   74 1
  73   43   44 1
  74   43   75 1
  75   43   76 1
  76   44   45 1
  77   44   46 1
  78   44   77 1
  79   45   78 1
  80   45   79 1
  81   46   47 ar
  82   46   51 ar
  83   47   48 ar
  84   47   80 1
  85   48   49 ar
  86   48   81 1
  87   49   50 ar
  88   49   82 1
  89   50   51 ar
  90   50   83 1
  91   51   84 1

#	End of record

