#	Name: ASD00842878
#	Creating user name:	WinNT
#	Creation time:	15. 06. 2019 18:45

#	Modifying user name:	WinNT
#	Modification time:	15. 06. 2019 18:45

#	Program:	/corina/corina34_cracker 3.40 0067  02.08.2006

@<TRIPOS>MOLECULE
ASD00842878
  97  102    0    0    0
SMALL
NO_CHARGES


@<TRIPOS>ATOM
   1 N1            -0.0056     1.3211     0.0336 N.ar    
   2 C2             0.0086    -0.0012     0.0174 C.ar    
   3 C3             1.2114    -0.6959    -0.0023 C.ar    
   4 C4             2.3991     0.0142    -0.0048 C.ar    
   5 C5             2.3412     1.4012     0.0126 C.ar    
   6 C6             1.1102     2.0256     0.0317 C.ar    
   7 C7             1.2227    -2.2028    -0.0202 C.3     
   8 C8             0.4754    -2.7247    -1.2289 C.2     
   9 N9             2.5990    -2.7048    -0.0112 N.am    
  10 C10            3.4472    -2.3639    -1.0016 C.2     
  11 N11            4.7405    -2.7378    -0.9396 N.am    
  12 O12            3.0455    -1.7192    -1.9509 O.2     
  13 C13            5.6563    -2.4767    -2.0605 C.3     
  14 C14            6.9068    -1.7789    -1.5150 C.3     
  15 N15            7.4744    -2.5812    -0.4231 N.3     
  16 C16            6.5392    -2.6829     0.7052 C.3     
  17 C17            5.2751    -3.4123     0.2531 C.3     
  18 C18            8.7676    -2.0374     0.0125 C.3     
  19 C19            9.2683    -2.8206     1.2292 C.3     
  20 C20           10.6434    -2.2898     1.6409 C.3     
  21 N21           11.5819    -2.4376     0.5211 N.3     
  22 C22           11.1464    -1.6561    -0.6434 C.3     
  23 C23            9.7863    -2.1680    -1.1232 C.3     
  24 C24           12.9449    -2.0667     0.9241 C.3     
  25 O25            0.7565    -2.5236    -2.3914 O.2     
  26 N26           -0.5571    -3.4529    -0.7725 N.am    
  27 C27            0.4472    -2.7525     1.1554 C.ar    
  28 C28           -0.6046    -3.4910     0.6182 C.ar    
  29 C29            0.6118    -2.6408     2.5127 C.ar    
  30 C30           -0.2868    -3.2757     3.3774 C.ar    
  31 C31           -1.3465    -4.0197     2.8447 C.ar    
  32 C32           -1.5003    -4.1255     1.4789 C.ar    
  33 F33           -2.2194    -4.6364     3.6710 F       
  34 C34           -1.0261    -5.8359    -2.0669 C.ar    
  35 C35            0.1525    -5.9980    -2.7810 C.ar    
  36 C36           -1.7080    -6.9421    -1.5965 C.ar    
  37 C37           -1.2181    -8.2116    -1.8354 C.ar    
  38 C38           -0.0396    -8.3789    -2.5492 C.ar    
  39 C39            0.6460    -7.2710    -3.0225 C.ar    
  40 O40            0.4416    -9.6279    -2.7843 O.3     
  41 O41            0.8223    -4.9099    -3.2437 O.3     
  42 C42            2.0285    -5.1514    -3.9709 C.3     
  43 C43           -0.3169   -10.7233    -2.2675 C.3     
  44 C44           13.9122    -2.3511    -0.2267 C.3     
  45 C45           12.9871    -0.5768     1.2694 C.3     
  46 S46           -1.6500    -4.2182    -1.7533 S.o2    
  47 O47           -2.8319    -4.3864    -0.9826 O.2     
  48 O48           -1.6242    -3.5303    -2.9964 O.2     
  49 C49           -0.1236    -3.1656     4.7958 C.1     
  50 N50            0.0059    -3.0783     5.9211 N.1     
  51 O51           -1.1628    -0.6858     0.0205 O.3     
  52 C52           -2.3653     0.0860     0.0415 C.3     
  53 C53           -3.5737    -0.8524     0.0419 C.3     
  54 F54           -3.5486    -1.6454    -1.1104 F       
  55 F55           -3.5264    -1.6731     1.1739 F       
  56 H56            3.3493    -0.4988    -0.0196 H       
  57 H57            3.2496     1.9854     0.0116 H       
  58 H58            1.0597     3.1044     0.0449 H       
  59 H59            2.8998    -3.2825     0.7076 H       
  60 H60            5.9384    -3.4191    -2.5301 H       
  61 H61            5.1668    -1.8325    -2.7909 H       
  62 H62            7.6433    -1.6767    -2.3120 H       
  63 H63            6.6377    -0.7917    -1.1391 H       
  64 H64            7.0089    -3.2364     1.5182 H       
  65 H65            6.2752    -1.6832     1.0501 H       
  66 H66            4.5337    -3.3894     1.0518 H       
  67 H67            5.5176    -4.4454     0.0043 H       
  68 H68            8.6501    -0.9869     0.2786 H       
  69 H69            8.5681    -2.6964     2.0553 H       
  70 H70            9.3476    -3.8774     0.9744 H       
  71 H71           10.5608    -1.2365     1.9088 H       
  72 H72           11.0091    -2.8549     2.4982 H       
  73 H73           11.0614    -0.6058    -0.3647 H       
  74 H74           11.8773    -1.7610    -1.4451 H       
  75 H75            9.8737    -3.2146    -1.4151 H       
  76 H76            9.4561    -1.5776    -1.9779 H       
  77 H77           13.2372    -2.6504     1.7970 H       
  78 H78            1.4330    -2.0646     2.9128 H       
  79 H79           -2.3194    -4.7008     1.0733 H       
  80 H80           -2.6252    -6.8140    -1.0408 H       
  81 H81           -1.7524    -9.0745    -1.4661 H       
  82 H82            1.5630    -7.3992    -3.5784 H       
  83 H83            2.7364    -5.6823    -3.3344 H       
  84 H84            1.8075    -5.7553    -4.8509 H       
  85 H85            2.4618    -4.2008    -4.2820 H       
  86 H86           -0.3884   -10.6362    -1.1834 H       
  87 H87           -1.3173   -10.7086    -2.7000 H       
  88 H88            0.1766   -11.6604    -2.5250 H       
  89 H89           13.6199    -1.7674    -1.0997 H       
  90 H90           14.9236    -2.0759     0.0723 H       
  91 H91           13.8822    -3.4126    -0.4727 H       
  92 H92           12.2980    -0.3742     2.0893 H       
  93 H93           13.9985    -0.3016     1.5684 H       
  94 H94           12.6948     0.0069     0.3965 H       
  95 H95           -2.3847     0.7038     0.9393 H       
  96 H96           -2.4021     0.7255    -0.8404 H       
  97 H97           -4.4909    -0.2637     0.0580 H       
@<TRIPOS>BOND
   1    1    2 ar
   2    1    6 ar
   3    2    3 ar
   4    2   51 1
   5    3    4 ar
   6    3    7 1
   7    4    5 ar
   8    4   56 1
   9    5    6 ar
  10    5   57 1
  11    6   58 1
  12    7    8 1
  13    7    9 1
  14    7   27 1
  15    8   25 2
  16    8   26 am
  17    9   10 am
  18    9   59 1
  19   10   11 am
  20   10   12 2
  21   11   13 1
  22   11   17 1
  23   13   14 1
  24   13   60 1
  25   13   61 1
  26   14   15 1
  27   14   62 1
  28   14   63 1
  29   15   16 1
  30   15   18 1
  31   16   17 1
  32   16   64 1
  33   16   65 1
  34   17   66 1
  35   17   67 1
  36   18   19 1
  37   18   23 1
  38   18   68 1
  39   19   20 1
  40   19   69 1
  41   19   70 1
  42   20   21 1
  43   20   71 1
  44   20   72 1
  45   21   22 1
  46   21   24 1
  47   22   23 1
  48   22   73 1
  49   22   74 1
  50   23   75 1
  51   23   76 1
  52   24   44 1
  53   24   45 1
  54   24   77 1
  55   26   46 am
  56   26   28 1
  57   27   28 ar
  58   27   29 ar
  59   28   32 ar
  60   29   30 ar
  61   29   78 1
  62   30   31 ar
  63   30   49 1
  64   31   32 ar
  65   31   33 1
  66   32   79 1
  67   34   35 ar
  68   34   36 ar
  69   34   46 1
  70   35   41 1
  71   35   39 ar
  72   36   37 ar
  73   36   80 1
  74   37   38 ar
  75   37   81 1
  76   38   39 ar
  77   38   40 1
  78   39   82 1
  79   40   43 1
  80   41   42 1
  81   42   83 1
  82   42   84 1
  83   42   85 1
  84   43   86 1
  85   43   87 1
  86   43   88 1
  87   44   89 1
  88   44   90 1
  89   44   91 1
  90   45   92 1
  91   45   93 1
  92   45   94 1
  93   46   47 2
  94   46   48 2
  95   49   50 3
  96   51   52 1
  97   52   53 1
  98   52   95 1
  99   52   96 1
 100   53   54 1
 101   53   55 1
 102   53   97 1

#	End of record

