#	Name: ASD01148329
#	Creating user name:	WinNT
#	Creation time:	15. 06. 2019 19:02

#	Modifying user name:	WinNT
#	Modification time:	15. 06. 2019 19:02

#	Program:	/corina/corina34_cracker 3.40 0067  02.08.2006

@<TRIPOS>MOLECULE
ASD01148329
  48   51    0    0    0
SMALL
NO_CHARGES


@<TRIPOS>ATOM
   1 C1            -0.4095     1.8309    -0.0441 C.ar    
   2 C2            -0.4704     0.4513     0.0160 C.ar    
   3 C3             0.6942    -0.2892     0.0952 C.ar    
   4 C4             1.9198     0.3500     0.1138 C.ar    
   5 C5             1.9807     1.7297     0.0528 C.ar    
   6 C6             0.8160     2.4702    -0.0250 C.ar    
   7 C7             3.3167     2.4266     0.0736 C.3     
   8 O8             4.3315     1.6159    -0.5529 O.3     
   9 C9             3.3038     3.6761    -0.8389 C.3     
  10 C10            3.8459     3.1340    -2.1479 C.2     
  11 N11            4.3971     1.9902    -1.9148 N.2     
  12 C12            3.7575     3.7996    -3.4624 C.ar    
  13 C13            4.3016     3.1864    -4.5941 C.ar    
  14 C14            3.1247     5.0400    -3.5762 C.ar    
  15 C15            3.0423     5.6607    -4.8022 C.ar    
  16 C16            3.5910     5.0502    -5.9325 C.ar    
  17 C17            4.2192     3.8071    -5.8197 C.ar    
  18 C18            3.5021     5.7162    -7.2484 C.2     
  19 O19            4.0742     5.2411    -8.2099 O.2     
  20 N20            2.7867     6.8505    -7.3826 N.am    
  21 C21            4.8111     3.1485    -7.0391 C.3     
  22 C22            3.7164     2.7958     1.5036 C.3     
  23 F23            3.7868     1.6358     2.2824 F       
  24 F24            4.9656     3.4255     1.4908 F       
  25 F25            2.7621     3.6638     2.0451 F       
  26 C26            2.7032     7.4763    -8.6190 C.ar    
  27 N27            1.9960     8.5901    -8.7331 N.ar    
  28 N28            3.3371     6.9480    -9.6548 N.ar    
  29 C29            3.2783     7.5188   -10.8465 C.ar    
  30 C30            2.5422     8.6829   -11.0029 C.ar    
  31 C31            1.8958     9.2114    -9.8964 C.ar    
  32 H32           -1.3192     2.4092    -0.1105 H       
  33 H33           -1.4279    -0.0482     0.0015 H       
  34 H34            0.6466    -1.3671     0.1429 H       
  35 H35            2.8296    -0.2284     0.1764 H       
  36 H36            0.8636     3.5481    -0.0730 H       
  37 H37            2.2886     4.0517    -0.9665 H       
  38 H38            3.9576     4.4524    -0.4413 H       
  39 H39            4.7872     2.2257    -4.5069 H       
  40 H40            2.6999     5.5117    -2.7024 H       
  41 H41            2.5532     6.6196    -4.8902 H       
  42 H42            2.3302     7.2296    -6.6153 H       
  43 H43            5.8077     3.5504    -7.2214 H       
  44 H44            4.8774     2.0730    -6.8750 H       
  45 H45            4.1762     3.3458    -7.9029 H       
  46 H46            3.7977     7.0834   -11.6874 H       
  47 H47            2.4775     9.1699   -11.9647 H       
  48 H48            1.3138    10.1170    -9.9842 H       
@<TRIPOS>BOND
   1    1    2 ar
   2    1    6 ar
   3    1   32 1
   4    2    3 ar
   5    2   33 1
   6    3    4 ar
   7    3   34 1
   8    4    5 ar
   9    4   35 1
  10    5    6 ar
  11    5    7 1
  12    6   36 1
  13    7    8 1
  14    7    9 1
  15    7   22 1
  16    8   11 1
  17    9   10 1
  18    9   37 1
  19    9   38 1
  20   10   11 2
  21   10   12 1
  22   12   13 ar
  23   12   14 ar
  24   13   17 ar
  25   13   39 1
  26   14   15 ar
  27   14   40 1
  28   15   16 ar
  29   15   41 1
  30   16   17 ar
  31   16   18 1
  32   17   21 1
  33   18   19 2
  34   18   20 am
  35   20   26 1
  36   20   42 1
  37   21   43 1
  38   21   44 1
  39   21   45 1
  40   22   23 1
  41   22   24 1
  42   22   25 1
  43   26   27 ar
  44   26   28 ar
  45   27   31 ar
  46   28   29 ar
  47   29   30 ar
  48   29   46 1
  49   30   31 ar
  50   30   47 1
  51   31   48 1

#	End of record

