#	Name: ASD01410252
#	Creating user name:	WinNT
#	Creation time:	15. 06. 2019 19:17

#	Modifying user name:	WinNT
#	Modification time:	15. 06. 2019 19:17

#	Program:	/corina/corina34_cracker 3.40 0067  02.08.2006

@<TRIPOS>MOLECULE
ASD01410252
  39   41    0    0    0
SMALL
NO_CHARGES


@<TRIPOS>ATOM
   1 C1            -0.1891     1.1022    -1.2090 C.ar    
   2 C2            -0.0848    -0.1397    -0.6140 C.ar    
   3 C3            -1.1861    -0.7195    -0.0042 C.ar    
   4 C4            -2.3972    -0.0616     0.0142 C.ar    
   5 C5            -2.5165     1.1954    -0.5841 C.ar    
   6 C6            -1.3994     1.7807    -1.1950 C.ar    
   7 O7            -1.5032     3.0010    -1.7787 O.3     
   8 I8             1.4842     1.9666    -2.1264 I       
   9 C9            -3.8098     1.9047    -0.5683 C.2     
  10 N10           -4.8807     1.3403     0.0243 N.am    
  11 O11           -3.9098     2.9986    -1.0901 O.2     
  12 C12           -7.2955     1.4000     0.0469 C.ar    
  13 C13           -6.0769     2.0595     0.1404 C.ar    
  14 C14           -6.0442     3.4321     0.3495 C.ar    
  15 C15           -7.2231     4.1412     0.4639 C.ar    
  16 C16           -8.4421     3.4817     0.3700 C.ar    
  17 C17           -8.4746     2.1088     0.1609 C.ar    
  18 I18           -1.0094    -2.6045     0.8928 I       
  19 N19           -9.6371     4.2001     0.4864 N.pl3   
  20 C20          -10.5173     7.7669     0.5835 C.ar    
  21 C21          -10.4912     6.4211     0.8920 C.ar    
  22 C22           -9.6663     5.5620     0.1768 C.ar    
  23 C23           -8.8701     6.0605    -0.8469 C.ar    
  24 C24           -8.9011     7.4074    -1.1500 C.ar    
  25 C25           -9.7231     8.2598    -0.4357 C.ar    
  26 H26            0.8603    -0.6622    -0.6242 H       
  27 H27           -3.2529    -0.5173     0.4902 H       
  28 H28           -1.3163     3.7392    -1.1828 H       
  29 H29           -4.8229     0.4360     0.3705 H       
  30 H30           -7.3207     0.3332    -0.1197 H       
  31 H31           -5.0965     3.9448     0.4229 H       
  32 H32           -7.1977     5.2085     0.6268 H       
  33 H33           -9.4222     1.5960     0.0874 H       
  34 H34          -10.4452     3.7526     0.7821 H       
  35 H35          -11.1616     8.4346     1.1362 H       
  36 H36          -11.1114     6.0369     1.6883 H       
  37 H37           -8.2274     5.3955    -1.4046 H       
  38 H38           -8.2824     7.7956    -1.9456 H       
  39 H39           -9.7452     9.3128    -0.6746 H       
@<TRIPOS>BOND
   1    1    2 ar
   2    1    8 1
   3    1    6 ar
   4    2    3 ar
   5    2   26 1
   6    3    4 ar
   7    3   18 1
   8    4    5 ar
   9    4   27 1
  10    5    6 ar
  11    5    9 1
  12    6    7 1
  13    7   28 1
  14    9   10 am
  15    9   11 2
  16   10   13 1
  17   10   29 1
  18   12   13 ar
  19   12   17 ar
  20   12   30 1
  21   13   14 ar
  22   14   15 ar
  23   14   31 1
  24   15   16 ar
  25   15   32 1
  26   16   17 ar
  27   16   19 1
  28   17   33 1
  29   19   22 1
  30   19   34 1
  31   20   21 ar
  32   20   25 ar
  33   20   35 1
  34   21   22 ar
  35   21   36 1
  36   22   23 ar
  37   23   24 ar
  38   23   37 1
  39   24   25 ar
  40   24   38 1
  41   25   39 1

#	End of record

