#	Name: ASD06342001
#	Creating user name:	WinNT
#	Creation time:	15. 06. 2019 21:06

#	Modifying user name:	WinNT
#	Modification time:	15. 06. 2019 21:06

#	Program:	/corina/corina34_cracker 3.40 0067  02.08.2006

@<TRIPOS>MOLECULE
ASD06342001
 152  152    0    0    0
SMALL
NO_CHARGES


@<TRIPOS>ATOM
   1 C1            -6.1426     5.5830     3.0860 C.3     
   2 C2            -5.8098     4.1012     2.9000 C.3     
   3 C3            -7.1048     3.2869     2.8749 C.3     
   4 C4            -6.7720     1.8052     2.6889 C.3     
   5 C5            -8.0671     0.9908     2.6638 C.3     
   6 C6            -7.7342    -0.4909     2.4778 C.3     
   7 C7            -9.0293    -1.3053     2.4527 C.3     
   8 C8            -8.6965    -2.7870     2.2667 C.3     
   9 C9            -9.9915    -3.6013     2.2416 C.3     
  10 C10           -9.6587    -5.0831     2.0556 C.3     
  11 C11          -10.9537    -5.8974     2.0305 C.3     
  12 C12          -10.6209    -7.3791     1.8445 C.3     
  13 C13          -11.9160    -8.1935     1.8195 C.3     
  14 C14          -11.5831    -9.6752     1.6334 C.3     
  15 C15          -12.8782   -10.4896     1.6084 C.3     
  16 C16          -12.5454   -11.9713     1.4224 C.3     
  17 C17          -13.8404   -12.7856     1.3973 C.3     
  18 C18          -13.5126   -14.2451     1.2141 C.2     
  19 O19          -12.3613   -14.5977     1.1138 O.2     
  20 O20          -14.4996   -15.1533     1.1622 O.3     
  21 C21          -14.1101   -16.5407     0.9840 C.3     
  22 C22          -15.3610   -17.4211     0.9491 C.3     
  23 O23          -16.0242   -17.3711     2.2398 O.3     
  24 C24          -16.7095   -18.4624     2.6155 C.2     
  25 C25          -17.4238   -18.4839     3.9423 C.3     
  26 C26          -18.1211   -19.8335     4.1243 C.3     
  27 C27          -18.8463   -19.8554     5.4713 C.3     
  28 C28          -19.5332   -21.1847     5.6505 C.2     
  29 O29          -16.7537   -19.4275     1.8899 O.2     
  30 C30          -19.1609   -21.9896     6.6148 C.2     
  31 C31          -17.9354   -21.6706     7.4317 C.3     
  32 C32          -18.3364   -21.4220     8.8629 C.2     
  33 C33          -17.7478   -22.0789     9.8315 C.2     
  34 C34          -16.5755   -22.9765     9.5296 C.3     
  35 C35          -15.4245   -22.6211    10.4351 C.2     
  36 C36          -14.8416   -23.5517    11.1494 C.2     
  37 C37          -15.2254   -24.9969    10.9617 C.3     
  38 C38          -13.9849   -25.8197    10.7268 C.2     
  39 C39          -13.6626   -26.7729    11.5657 C.2     
  40 C40          -14.4175   -26.9236    12.8612 C.3     
  41 C41          -15.1329   -28.2759    12.8804 C.3     
  42 C42          -15.8993   -28.4288    14.1958 C.3     
  43 C43          -16.6147   -29.7811    14.2149 C.3     
  44 C44          -17.3811   -29.9340    15.5303 C.3     
  45 C45          -16.3137   -16.9109    -0.1340 C.3     
  46 O46          -16.5960   -15.5286     0.0927 O.3     
  47 P47          -17.5667   -14.6646    -0.8578 P.3     
  48 O48          -17.0739   -14.7587    -2.3191 O.co2   
  49 O49          -19.0061   -15.2179    -0.7630 O.co2   
  50 O50          -17.5510   -13.1259    -0.3842 O.3     
  51 C51          -19.2655   -11.4360    -0.1711 C.3     
  52 C52          -19.9936   -10.3236    -0.9283 C.3     
  53 C53          -18.9819    -9.2702    -1.3839 C.3     
  54 C54          -17.9474    -9.9210    -2.3043 C.3     
  55 C55          -17.2193   -11.0334    -1.5471 C.3     
  56 C56          -18.2310   -12.0869    -1.0915 C.3     
  57 O57          -18.6067   -10.8832     0.9702 O.3     
  58 O58          -16.2531   -11.6414    -2.4068 O.3     
  59 O59          -20.6523   -10.8765    -2.0695 O.3     
  60 P60          -22.2449   -10.7911    -2.2896 P.3     
  61 O61          -22.6674    -9.2935    -2.4717 O.co2   
  62 O62          -22.6396   -11.6045    -3.5691 O.co2   
  63 O63          -22.9774   -11.3923    -1.0420 O.co2   
  64 O64          -19.6619    -8.2312    -2.0912 O.3     
  65 O65          -18.6061   -10.4739    -3.4456 O.3     
  66 P66          -18.2834   -10.0117    -4.9537 P.3     
  67 O67          -18.4563    -8.4592    -5.0724 O.co2   
  68 O68          -16.8100   -10.4023    -5.3156 O.co2   
  69 O69          -19.2699   -10.7240    -5.9406 O.co2   
  70 P70          -19.6461    -6.6925    -1.6176 P.3     
  71 O71          -20.1458    -6.5970    -0.1358 O.co2   
  72 O72          -18.1865    -6.1314    -1.7137 O.co2   
  73 O73          -20.5907    -5.8518    -2.5425 O.co2   
  74 H74           -5.2200     6.1631     3.1038 H       
  75 H75           -6.7686     5.9212     2.2602 H       
  76 H76           -6.6764     5.7202     4.0264 H       
  77 H77           -5.2760     3.9640     1.9596 H       
  78 H78           -5.1838     3.7630     3.7257 H       
  79 H79           -7.6386     3.4241     3.8153 H       
  80 H80           -7.7308     3.6251     2.0491 H       
  81 H81           -6.2383     1.6679     1.7485 H       
  82 H82           -6.1461     1.4669     3.5146 H       
  83 H83           -8.6008     1.1280     3.6042 H       
  84 H84           -8.6930     1.3291     1.8380 H       
  85 H85           -7.2005    -0.6281     1.5374 H       
  86 H86           -7.1083    -0.8291     3.3036 H       
  87 H87           -9.5630    -1.1680     3.3931 H       
  88 H88           -9.6552    -0.9670     1.6270 H       
  89 H89           -8.1627    -2.9242     1.3263 H       
  90 H90           -8.0705    -3.1252     3.0925 H       
  91 H91          -10.5253    -3.4641     3.1820 H       
  92 H92          -10.6175    -3.2631     1.4159 H       
  93 H93           -9.1249    -5.2203     1.1152 H       
  94 H94           -9.0327    -5.4213     2.8814 H       
  95 H95          -11.4875    -5.7602     2.9710 H       
  96 H96          -11.5797    -5.5592     1.2048 H       
  97 H97          -10.0872    -7.5164     0.9041 H       
  98 H98           -9.9950    -7.7174     2.6703 H       
  99 H99          -12.4497    -8.0563     2.7599 H       
 100 H100         -12.5419    -7.8552     0.9937 H       
 101 H101         -11.0494    -9.8124     0.6930 H       
 102 H102         -10.9572   -10.0135     2.4592 H       
 103 H103         -13.4119   -10.3523     2.5488 H       
 104 H104         -13.5041   -10.1513     0.7826 H       
 105 H105         -12.0116   -12.1085     0.4819 H       
 106 H106         -11.9194   -12.3095     2.2481 H       
 107 H107         -14.3742   -12.6484     2.3377 H       
 108 H108         -14.4664   -12.4474     0.5715 H       
 109 H109         -13.5645   -16.6473     0.0464 H       
 110 H110         -13.4723   -16.8483     1.8126 H       
 111 H111         -15.0755   -18.4493     0.7269 H       
 112 H112         -16.7022   -18.3365     4.7458 H       
 113 H113         -18.1652   -17.6854     3.9688 H       
 114 H114         -18.8427   -19.9809     3.3207 H       
 115 H115         -17.3797   -20.6321     4.0978 H       
 116 H116         -18.1247   -19.7080     6.2748 H       
 117 H117         -19.5877   -19.0568     5.4978 H       
 118 H118         -20.3323   -21.4738     4.9841 H       
 119 H119         -19.7324   -22.8818     6.8243 H       
 120 H120         -17.2418   -22.5103     7.3892 H       
 121 H121         -17.4526   -20.7798     7.0297 H       
 122 H122         -19.1090   -20.7024     9.0901 H       
 123 H123         -18.1028   -21.9772    10.8465 H       
 124 H124         -16.8610   -24.0152     9.6955 H       
 125 H125         -16.2746   -22.8439     8.4904 H       
 126 H126         -15.0802   -21.5992    10.4952 H       
 127 H127         -14.0859   -23.2833    11.8728 H       
 128 H128         -15.7359   -25.3562    11.8552 H       
 129 H129         -15.8898   -25.0877    10.1024 H       
 130 H130         -13.3616   -25.6235     9.8670 H       
 131 H131         -12.8560   -27.4508    11.3287 H       
 132 H132         -13.7195   -26.8699    13.6968 H       
 133 H133         -15.1517   -26.1228    12.9492 H       
 134 H134         -15.8309   -28.3295    12.0449 H       
 135 H135         -14.3987   -29.0767    12.7925 H       
 136 H136         -15.2013   -28.3752    15.0313 H       
 137 H137         -16.6335   -27.6280    14.2837 H       
 138 H138         -17.3127   -29.8348    13.3794 H       
 139 H139         -15.8804   -30.5819    14.1270 H       
 140 H140         -17.8907   -30.8974    15.5440 H       
 141 H141         -16.6831   -29.8804    16.3658 H       
 142 H142         -18.1153   -29.1333    15.6182 H       
 143 H143         -15.8490   -17.0312    -1.1126 H       
 144 H144         -17.2417   -17.4817    -0.0998 H       
 145 H145         -19.9862   -12.1865     0.1536 H       
 146 H146         -20.7305    -9.8599    -0.2726 H       
 147 H147         -18.4794    -8.8485    -0.5134 H       
 148 H148         -17.2266    -9.1705    -2.6289 H       
 149 H149         -16.7168   -10.6118    -0.6766 H       
 150 H150         -18.7335   -12.5086    -1.9620 H       
 151 H151         -18.1235   -11.5331     1.4986 H       
 152 H152         -15.7525   -12.3571    -1.9918 H       
@<TRIPOS>BOND
   1    1    2 1
   2    1   74 1
   3    1   75 1
   4    1   76 1
   5    2    3 1
   6    2   77 1
   7    2   78 1
   8    3    4 1
   9    3   79 1
  10    3   80 1
  11    4    5 1
  12    4   81 1
  13    4   82 1
  14    5    6 1
  15    5   83 1
  16    5   84 1
  17    6    7 1
  18    6   85 1
  19    6   86 1
  20    7    8 1
  21    7   87 1
  22    7   88 1
  23    8    9 1
  24    8   89 1
  25    8   90 1
  26    9   10 1
  27    9   91 1
  28    9   92 1
  29   10   11 1
  30   10   93 1
  31   10   94 1
  32   11   12 1
  33   11   95 1
  34   11   96 1
  35   12   13 1
  36   12   97 1
  37   12   98 1
  38   13   14 1
  39   13   99 1
  40   13  100 1
  41   14   15 1
  42   14  101 1
  43   14  102 1
  44   15   16 1
  45   15  103 1
  46   15  104 1
  47   16   17 1
  48   16  105 1
  49   16  106 1
  50   17   18 1
  51   17  107 1
  52   17  108 1
  53   18   19 2
  54   18   20 1
  55   20   21 1
  56   21   22 1
  57   21  109 1
  58   21  110 1
  59   22   23 1
  60   22   45 1
  61   22  111 1
  62   23   24 1
  63   24   25 1
  64   24   29 2
  65   25   26 1
  66   25  112 1
  67   25  113 1
  68   26   27 1
  69   26  114 1
  70   26  115 1
  71   27   28 1
  72   27  116 1
  73   27  117 1
  74   28   30 2
  75   28  118 1
  76   30   31 1
  77   30  119 1
  78   31   32 1
  79   31  120 1
  80   31  121 1
  81   32   33 2
  82   32  122 1
  83   33   34 1
  84   33  123 1
  85   34   35 1
  86   34  124 1
  87   34  125 1
  88   35   36 2
  89   35  126 1
  90   36   37 1
  91   36  127 1
  92   37   38 1
  93   37  128 1
  94   37  129 1
  95   38   39 2
  96   38  130 1
  97   39   40 1
  98   39  131 1
  99   40   41 1
 100   40  132 1
 101   40  133 1
 102   41   42 1
 103   41  134 1
 104   41  135 1
 105   42   43 1
 106   42  136 1
 107   42  137 1
 108   43   44 1
 109   43  138 1
 110   43  139 1
 111   44  140 1
 112   44  141 1
 113   44  142 1
 114   45   46 1
 115   45  143 1
 116   45  144 1
 117   46   47 1
 118   47   48 ar
 119   47   49 ar
 120   47   50 1
 121   50   56 1
 122   51   52 1
 123   51   57 1
 124   51   56 1
 125   51  145 1
 126   52   53 1
 127   52   59 1
 128   52  146 1
 129   53   54 1
 130   53   64 1
 131   53  147 1
 132   54   55 1
 133   54   65 1
 134   54  148 1
 135   55   56 1
 136   55   58 1
 137   55  149 1
 138   56  150 1
 139   57  151 1
 140   58  152 1
 141   59   60 1
 142   60   61 ar
 143   60   62 ar
 144   60   63 ar
 145   64   70 1
 146   65   66 1
 147   66   67 ar
 148   66   68 ar
 149   66   69 ar
 150   70   71 ar
 151   70   72 ar
 152   70   73 ar

#	End of record

