#	Name: ASD03912018
#	Creating user name:	WinNT
#	Creation time:	15. 06. 2019 20:47

#	Modifying user name:	WinNT
#	Modification time:	15. 06. 2019 20:47

#	Program:	/corina/corina34_cracker 3.40 0067  02.08.2006

@<TRIPOS>MOLECULE
ASD03912018
  46   48    0    0    0
SMALL
NO_CHARGES


@<TRIPOS>ATOM
   1 C1            -2.2713    -0.6396     1.1578 C.ar    
   2 C2            -1.3095    -0.1960     2.0469 C.ar    
   3 C3            -1.4412     1.0402     2.6525 C.ar    
   4 C4            -2.5347     1.8356     2.3712 C.ar    
   5 C5            -3.5023     1.3929     1.4789 C.ar    
   6 C6            -3.3640     0.1536     0.8677 C.ar    
   7 N7            -4.6114     2.1963     1.1918 N.am    
   8 C8            -4.4731     3.5350     1.1192 C.2     
   9 C9            -5.6415     4.3919     0.7050 C.3     
  10 O10           -3.4082     4.0500     1.3871 O.2     
  11 C11           -5.2265     5.8406     0.7040 C.ar    
  12 C12           -4.7013     6.4073    -0.4427 C.ar    
  13 C13           -4.3201     7.7351    -0.4462 C.ar    
  14 C14           -4.4648     8.5001     0.7021 C.ar    
  15 C15           -4.9922     7.9292     1.8513 C.ar    
  16 C16           -5.3770     6.6025     1.8480 C.ar    
  17 O17           -4.0902     9.8065     0.7013 O.3     
  18 C18           -3.6603    10.3573    -0.5452 C.3     
  19 C19           -4.7673    10.3927    -1.6007 C.3     
  20 C20           -2.8790    11.6804    -0.4105 C.3     
  21 C21           -2.1237    -1.9875     0.5001 C.3     
  22 C22           -0.3908     1.5198     3.6207 C.3     
  23 C23           -2.3420     9.7917    -1.0499 C.2     
  24 O24           -1.8538     8.6898    -1.1368 O.2     
  25 O25           -1.9480    11.0603    -1.3603 O.3     
  26 H26           -0.4539    -0.8164     2.2690 H       
  27 H27           -2.6374     2.8006     2.8451 H       
  28 H28           -4.1146    -0.1933     0.1730 H       
  29 H29           -5.4798     1.7898     1.0451 H       
  30 H30           -5.9651     4.1059    -0.2958 H       
  31 H31           -6.4632     4.2498     1.4070 H       
  32 H32           -4.5885     5.8112    -1.3362 H       
  33 H33           -3.9096     8.1772    -1.3419 H       
  34 H34           -5.1058     8.5227     2.7464 H       
  35 H35           -5.7876     6.1575     2.7423 H       
  36 H36           -5.5453    11.0893    -1.2881 H       
  37 H37           -4.3503    10.7177    -2.5539 H       
  38 H38           -5.1951     9.3964    -1.7121 H       
  39 H39           -3.4049    12.5489    -0.8070 H       
  40 H40           -2.4566    11.8478     0.5802 H       
  41 H41           -2.6041    -2.7472     1.1167 H       
  42 H42           -2.5948    -1.9658    -0.4825 H       
  43 H43           -1.0654    -2.2244     0.3905 H       
  44 H44            0.3785     2.0701     3.0790 H       
  45 H45           -0.8510     2.1731     4.3620 H       
  46 H46            0.0600     0.6630     4.1215 H       
@<TRIPOS>BOND
   1    1    2 ar
   2    1   21 1
   3    1    6 ar
   4    2    3 ar
   5    2   26 1
   6    3    4 ar
   7    3   22 1
   8    4    5 ar
   9    4   27 1
  10    5    6 ar
  11    5    7 1
  12    6   28 1
  13    7    8 am
  14    7   29 1
  15    8    9 1
  16    8   10 2
  17    9   11 1
  18    9   30 1
  19    9   31 1
  20   11   12 ar
  21   11   16 ar
  22   12   13 ar
  23   12   32 1
  24   13   14 ar
  25   13   33 1
  26   14   15 ar
  27   14   17 1
  28   15   16 ar
  29   15   34 1
  30   16   35 1
  31   17   18 1
  32   18   19 1
  33   18   20 1
  34   18   23 1
  35   19   36 1
  36   19   37 1
  37   19   38 1
  38   20   25 1
  39   20   39 1
  40   20   40 1
  41   21   41 1
  42   21   42 1
  43   21   43 1
  44   22   44 1
  45   22   45 1
  46   22   46 1
  47   23   24 2
  48   23   25 1

#	End of record

