#	Name: ASD01901157
#	Creating user name:	WinNT
#	Creation time:	15. 06. 2019 19:53

#	Modifying user name:	WinNT
#	Modification time:	15. 06. 2019 19:53

#	Program:	/corina/corina34_cracker 3.40 0067  02.08.2006

@<TRIPOS>MOLECULE
ASD01901157
  51   54    0    0    0
SMALL
NO_CHARGES


@<TRIPOS>ATOM
   1 C1             1.7036     1.4477     1.3882 C.ar    
   2 C2             1.8075     0.0729     1.4251 C.ar    
   3 C3             1.8841    -0.6505     0.2479 C.ar    
   4 C4             1.8568    -0.0015    -0.9740 C.ar    
   5 C5             1.7528     1.3727    -1.0266 C.ar    
   6 C6             1.6754     2.1100     0.1580 C.ar    
   7 C7             1.5673     3.5371     0.1115 C.1     
   8 C8             1.4787     4.7071     0.0734 C.1     
   9 C9             1.3706     6.1343     0.0269 C.ar    
  10 C10            1.3416     6.8065    -1.2038 C.ar    
  11 C11            1.2359     8.1833    -1.1965 C.ar    
  12 C12            1.1621     8.8534     0.0201 C.ar    
  13 N13            1.1919     8.1906     1.1660 N.ar    
  14 C14            1.2865     6.8779     1.2064 C.ar    
  15 N15            1.0556    10.2457     0.0332 N.am    
  16 C16            2.1708    10.9947     0.0270 C.2     
  17 N17            2.1282    12.3176    -0.1998 N.am    
  18 C18            0.8753    12.9774    -0.5720 C.3     
  19 C19           -0.2903    12.3152     0.1664 C.3     
  20 C20           -0.1626    10.8170     0.0464 C.2     
  21 O21            3.2439    10.4624     0.2320 O.2     
  22 O22           -1.1566    10.1277    -0.0344 O.2     
  23 C23            3.3526    13.1120    -0.0726 C.3     
  24 C24            0.9482    14.4564    -0.1872 C.3     
  25 C25            0.6619    12.8555    -2.0588 C.ar    
  26 C26           -0.4931    13.3513    -2.6343 C.ar    
  27 C27            1.6237    12.2529    -2.8480 C.ar    
  28 C28            1.4279    12.1411    -4.2119 C.ar    
  29 C29            0.2702    12.6314    -4.7864 C.ar    
  30 C30           -0.6888    13.2395    -3.9981 C.ar    
  31 H31            1.6398     2.0106     2.3077 H       
  32 H32            1.8294    -0.4403     2.3752 H       
  33 H33            1.9660    -1.7268     0.2830 H       
  34 H34            1.9174    -0.5726    -1.8886 H       
  35 H35            1.7319     1.8779    -1.9810 H       
  36 H36            1.4009     6.2610    -2.1340 H       
  37 H37            1.2111     8.7339    -2.1253 H       
  38 H38            1.3032     6.3718     2.1603 H       
  39 H39           -0.2663    12.6033     1.2174 H       
  40 H40           -1.2323    12.6356    -0.2785 H       
  41 H41            4.1803    12.4611     0.2091 H       
  42 H42            3.5754    13.5913    -1.0258 H       
  43 H43            3.2130    13.8745     0.6937 H       
  44 H44            1.1021    14.5448     0.8883 H       
  45 H45            1.7783    14.9281    -0.7130 H       
  46 H46            0.0162    14.9499    -0.4626 H       
  47 H47           -1.2427    13.8257    -2.0182 H       
  48 H48            2.5282    11.8699    -2.3991 H       
  49 H49            2.1796    11.6710    -4.8285 H       
  50 H50            0.1174    12.5444    -5.8520 H       
  51 H51           -1.5913    13.6266    -4.4476 H       
@<TRIPOS>BOND
   1    1    2 ar
   2    1    6 ar
   3    1   31 1
   4    2    3 ar
   5    2   32 1
   6    3    4 ar
   7    3   33 1
   8    4    5 ar
   9    4   34 1
  10    5    6 ar
  11    5   35 1
  12    6    7 1
  13    7    8 3
  14    8    9 1
  15    9   10 ar
  16    9   14 ar
  17   10   11 ar
  18   10   36 1
  19   11   12 ar
  20   11   37 1
  21   12   13 ar
  22   12   15 1
  23   13   14 ar
  24   14   38 1
  25   15   16 am
  26   15   20 am
  27   16   17 am
  28   16   21 2
  29   17   23 1
  30   17   18 1
  31   18   19 1
  32   18   24 1
  33   18   25 1
  34   19   20 1
  35   19   39 1
  36   19   40 1
  37   20   22 2
  38   23   41 1
  39   23   42 1
  40   23   43 1
  41   24   44 1
  42   24   45 1
  43   24   46 1
  44   25   27 ar
  45   25   26 ar
  46   26   30 ar
  47   26   47 1
  48   27   28 ar
  49   27   48 1
  50   28   29 ar
  51   28   49 1
  52   29   30 ar
  53   29   50 1
  54   30   51 1

#	End of record

