#	Name: ASD01901206
#	Creating user name:	WinNT
#	Creation time:	15. 06. 2019 19:53

#	Modifying user name:	WinNT
#	Modification time:	15. 06. 2019 19:53

#	Program:	/corina/corina34_cracker 3.40 0067  02.08.2006

@<TRIPOS>MOLECULE
ASD01901206
  51   54    0    0    0
SMALL
NO_CHARGES


@<TRIPOS>ATOM
   1 C1            -0.1050     1.3155     0.1977 C.ar    
   2 N2            -0.0973    -0.0008     0.2167 N.ar    
   3 C3             1.0247    -0.6903     0.2981 C.ar    
   4 C4             2.2512    -0.0545     0.3676 C.ar    
   5 C5             2.2996     1.3281     0.3512 C.ar    
   6 C6             1.0920     2.0336     0.2642 C.ar    
   7 C7             1.0847     3.4655     0.2432 C.1     
   8 C8             1.0788     4.6393     0.2259 C.1     
   9 C9             1.0715     6.0712     0.2049 C.ar    
  10 C10            2.2750     6.7789     0.2719 C.ar    
  11 C11            2.2642     8.1587     0.2515 C.ar    
  12 C12            1.0573     8.8453     0.1643 C.ar    
  13 C13           -0.1425     8.1442     0.0974 C.ar    
  14 C14           -0.1389     6.7643     0.1116 C.ar    
  15 N15            1.0501    10.2476     0.1442 N.am    
  16 C16            1.1219    10.8939    -1.0338 C.2     
  17 C17            1.2154    12.3988    -1.0629 C.3     
  18 C18            0.4045    12.9756     0.0998 C.3     
  19 N19            0.7224    12.2449     1.3280 N.am    
  20 C20            0.9662    10.9255     1.3010 C.2     
  21 O21            1.1117    10.2667    -2.0713 O.2     
  22 O22            1.1193    10.3304     2.3496 O.2     
  23 F23            3.4269     8.8436     0.3167 F       
  24 F24           -1.3121     8.8150     0.0128 F       
  25 C25            0.7698    12.9631     2.6040 C.3     
  26 C26            0.7545    14.4308     0.2764 C.ar    
  27 C27           -1.0902    12.8438    -0.1995 C.3     
  28 C28            2.0548    14.7984     0.5680 C.ar    
  29 C29            2.3759    16.1331     0.7300 C.ar    
  30 C30            1.3968    17.1003     0.5999 C.ar    
  31 C31            0.0967    16.7327     0.3074 C.ar    
  32 C32           -0.2235    15.3983     0.1411 C.ar    
  33 F33           -1.8274    13.3757     0.8639 F       
  34 F34           -1.3942    13.5420    -1.3730 F       
  35 F35           -1.4156    11.4930    -0.3629 F       
  36 H36           -1.0438     1.8447     0.1257 H       
  37 H37            0.9848    -1.7695     0.3111 H       
  38 H38            3.1618    -0.6314     0.4342 H       
  39 H39            3.2436     1.8501     0.4046 H       
  40 H40            3.2122     6.2466     0.3400 H       
  41 H41           -1.0703     6.2206     0.0548 H       
  42 H42            2.2581    12.7009    -0.9649 H       
  43 H43            0.8148    12.7705    -2.0060 H       
  44 H44           -0.2350    13.0289     3.0214 H       
  45 H45            1.4174    12.4279     3.2984 H       
  46 H46            1.1621    13.9670     2.4415 H       
  47 H47            2.8197    14.0428     0.6696 H       
  48 H48            3.3916    16.4203     0.9585 H       
  49 H49            1.6475    18.1430     0.7272 H       
  50 H50           -0.6683    17.4883     0.2061 H       
  51 H51           -1.2385    15.1114    -0.0910 H       
@<TRIPOS>BOND
   1    1    2 ar
   2    1    6 ar
   3    1   36 1
   4    2    3 ar
   5    3    4 ar
   6    3   37 1
   7    4    5 ar
   8    4   38 1
   9    5    6 ar
  10    5   39 1
  11    6    7 1
  12    7    8 3
  13    8    9 1
  14    9   10 ar
  15    9   14 ar
  16   10   11 ar
  17   10   40 1
  18   11   12 ar
  19   11   23 1
  20   12   13 ar
  21   12   15 1
  22   13   14 ar
  23   13   24 1
  24   14   41 1
  25   15   16 am
  26   15   20 am
  27   16   17 1
  28   16   21 2
  29   17   18 1
  30   17   42 1
  31   17   43 1
  32   18   19 1
  33   18   26 1
  34   18   27 1
  35   19   20 am
  36   19   25 1
  37   20   22 2
  38   25   44 1
  39   25   45 1
  40   25   46 1
  41   26   28 ar
  42   26   32 ar
  43   27   33 1
  44   27   34 1
  45   27   35 1
  46   28   29 ar
  47   28   47 1
  48   29   30 ar
  49   29   48 1
  50   30   31 ar
  51   30   49 1
  52   31   32 ar
  53   31   50 1
  54   32   51 1

#	End of record

