#	Name: ASD01813605
#	Creating user name:	WinNT
#	Creation time:	15. 06. 2019 19:30

#	Modifying user name:	WinNT
#	Modification time:	15. 06. 2019 19:30

#	Program:	/corina/corina34_cracker 3.40 0067  02.08.2006

@<TRIPOS>MOLECULE
ASD01813605
  44   47    0    0    0
SMALL
NO_CHARGES


@<TRIPOS>ATOM
   1 C1            -0.0108     1.3813     0.1860 C.ar    
   2 C2             0.0079    -0.0049     0.1765 C.ar    
   3 C3             1.2014    -0.6939     0.1037 C.ar    
   4 C4             2.4060     0.0040     0.0381 C.ar    
   5 C5             2.3855     1.4092     0.0474 C.ar    
   6 C6             1.1698     2.0938     0.1219 C.ar    
   7 N7             3.6050    -0.6734    -0.0339 N.pl3   
   8 C8             4.7879    -0.0492    -0.0976 C.2     
   9 C9             4.8943     1.3269    -0.0954 C.2     
  10 C10            3.6660     2.1351    -0.0224 C.2     
  11 O11            3.7065     3.3531    -0.0179 O.2     
  12 C12            6.2116     1.9745    -0.1656 C.2     
  13 O13            6.3025     3.3195    -0.1626 O.3     
  14 O14            7.2193     1.2974    -0.2263 O.2     
  15 C15            3.5837    -2.1382    -0.0406 C.3     
  16 C16            3.4403    -2.6321    -1.4571 C.ar    
  17 N17            2.2402    -2.7346    -1.9912 N.ar    
  18 C18            2.0667    -3.1646    -3.2347 C.ar    
  19 C19            3.1613    -3.5242    -4.0187 C.ar    
  20 C20            4.4335    -3.4262    -3.4826 C.ar    
  21 C21            4.5702    -2.9661    -2.1806 C.ar    
  22 F22            1.2022    -2.0449     0.0963 F       
  23 F23            1.1499     3.4447     0.1304 F       
  24 C24            0.6975    -3.2638    -3.7940 C.ar    
  25 C25           -0.4072    -2.9058    -3.0150 C.ar    
  26 C26           -1.6838    -3.0013    -3.5465 C.ar    
  27 C27           -1.8627    -3.4487    -4.8413 C.ar    
  28 C28           -0.7712    -3.8038    -5.6149 C.ar    
  29 C29            0.5056    -3.7088    -5.1006 C.ar    
  30 O30           -0.2300    -2.4665    -1.7421 O.3     
  31 H31           -0.9533     1.9060     0.2393 H       
  32 H32           -0.9221    -0.5518     0.2270 H       
  33 H33            5.6888    -0.6424    -0.1522 H       
  34 H34            7.1904     3.6997    -0.2103 H       
  35 H35            4.5134    -2.5171     0.3839 H       
  36 H36            2.7418    -2.4920     0.5545 H       
  37 H37            3.0188    -3.8747    -5.0303 H       
  38 H38            5.3009    -3.6976    -4.0661 H       
  39 H39            5.5494    -2.8782    -1.7335 H       
  40 H40           -2.5395    -2.7261    -2.9478 H       
  41 H41           -2.8589    -3.5221    -5.2517 H       
  42 H42           -0.9192    -4.1527    -6.6262 H       
  43 H43            1.3548    -3.9864    -5.7073 H       
  44 H44           -0.1177    -1.5089    -1.6686 H       
@<TRIPOS>BOND
   1    1    2 ar
   2    1    6 ar
   3    1   31 1
   4    2    3 ar
   5    2   32 1
   6    3    4 ar
   7    3   22 1
   8    4    5 ar
   9    4    7 1
  10    5    6 ar
  11    5   10 1
  12    6   23 1
  13    7    8 1
  14    7   15 1
  15    8    9 2
  16    8   33 1
  17    9   10 1
  18    9   12 1
  19   10   11 2
  20   12   13 1
  21   12   14 2
  22   13   34 1
  23   15   16 1
  24   15   35 1
  25   15   36 1
  26   16   17 ar
  27   16   21 ar
  28   17   18 ar
  29   18   19 ar
  30   18   24 1
  31   19   20 ar
  32   19   37 1
  33   20   21 ar
  34   20   38 1
  35   21   39 1
  36   24   25 ar
  37   24   29 ar
  38   25   26 ar
  39   25   30 1
  40   26   27 ar
  41   26   40 1
  42   27   28 ar
  43   27   41 1
  44   28   29 ar
  45   28   42 1
  46   29   43 1
  47   30   44 1

#	End of record

