#	Name: ASD01940520
#	Creating user name:	WinNT
#	Creation time:	15. 06. 2019 20:12

#	Modifying user name:	WinNT
#	Modification time:	15. 06. 2019 20:12

#	Program:	/corina/corina34_cracker 3.40 0067  02.08.2006

@<TRIPOS>MOLECULE
ASD01940520
  61   64    0    0    0
SMALL
NO_CHARGES


@<TRIPOS>ATOM
   1 C1             0.7334     1.4149    -1.1448 C.ar    
   2 C2             0.7635     0.0087    -1.1495 C.ar    
   3 C3             1.1738    -0.6729     0.0124 C.ar    
   4 C4             1.5368     0.0977     1.1316 C.ar    
   5 C5             1.4758     1.4942     1.0447 C.ar    
   6 N6             1.0886     2.0941    -0.0561 N.ar    
   7 N7             0.0625     0.6431    -3.1405 N.2     
   8 N8             0.2978     1.7962    -2.3830 N.pl3   
   9 C9             0.3373    -0.4125    -2.4301 C.2     
  10 C10            1.9741    -0.5543     2.3768 C.2     
  11 O11            1.9797    -1.7679     2.4583 O.2     
  12 N12            2.3684     0.1934     3.4265 N.am    
  13 O13            2.7891    -0.4337     4.6243 O.3     
  14 C14            3.1787     0.4790     5.6525 C.3     
  15 C15            3.6118    -0.3049     6.8930 C.3     
  16 C16            4.3454     1.3364     5.1580 C.3     
  17 C17            1.9962     1.3826     6.0073 C.3     
  18 O18            4.0015     0.6078     7.9212 O.3     
  19 C19            0.1094     3.1756    -2.8390 C.3     
  20 C20            1.3876     3.6789    -3.4586 C.ar    
  21 C21            1.6132     3.5066    -4.8118 C.ar    
  22 C22            2.7841     3.9671    -5.3821 C.ar    
  23 C23            3.7341     4.6027    -4.5959 C.ar    
  24 C24            3.5054     4.7743    -3.2384 C.ar    
  25 C25            2.3303     4.3171    -2.6739 C.ar    
  26 O26            4.8870     5.0562    -5.1545 O.3     
  27 C27            5.8197     5.7008    -4.2847 C.3     
  28 N28            1.2178    -2.0518     0.0519 N.pl3   
  29 C29            0.1291    -2.7724     0.5550 C.ar    
  30 C30            0.1213    -4.1620     0.4869 C.ar    
  31 C31           -0.9561    -4.8702     0.9856 C.ar    
  32 C32           -2.0249    -4.1978     1.5517 C.ar    
  33 C33           -2.0190    -2.8166     1.6203 C.ar    
  34 C34           -0.9430    -2.1028     1.1285 C.ar    
  35 I35           -3.6560    -5.2748     2.3057 I       
  36 F36            1.1647    -4.8182    -0.0662 F       
  37 H37            1.7536     2.0898     1.9017 H       
  38 H38            0.2483    -1.4368    -2.7607 H       
  39 H39            2.3639     1.1612     3.3615 H       
  40 H40            2.7807    -0.9157     7.2453 H       
  41 H41            4.4543    -0.9487     6.6402 H       
  42 H42            4.0369     1.8948     4.2742 H       
  43 H43            4.6427     2.0326     5.9422 H       
  44 H44            5.1879     0.6926     4.9052 H       
  45 H45            1.1650     0.7718     6.3596 H       
  46 H46            2.2934     2.0788     6.7916 H       
  47 H47            1.6877     1.9411     5.1235 H       
  48 H48            4.2888     0.1795     8.7392 H       
  49 H49           -0.6903     3.2076    -3.5790 H       
  50 H50           -0.1557     3.8059    -1.9901 H       
  51 H51            0.8735     3.0114    -5.4233 H       
  52 H52            2.9600     3.8320    -6.4391 H       
  53 H53            4.2434     5.2688    -2.6242 H       
  54 H54            2.1497     4.4546    -1.6180 H       
  55 H55            6.1265     5.0066    -3.5023 H       
  56 H56            6.6935     6.0133    -4.8564 H       
  57 H57            5.3504     6.5742    -3.8319 H       
  58 H58            2.0035    -2.5214    -0.2693 H       
  59 H59           -0.9638    -5.9489     0.9331 H       
  60 H60           -2.8551    -2.2952     2.0625 H       
  61 H61           -0.9378    -1.0244     1.1869 H       
@<TRIPOS>BOND
   1    1    2 ar
   2    1    6 ar
   3    1    8 1
   4    2    3 ar
   5    2    9 1
   6    3    4 ar
   7    3   28 1
   8    4    5 ar
   9    4   10 1
  10    5    6 ar
  11    5   37 1
  12    7    8 1
  13    7    9 2
  14    8   19 1
  15    9   38 1
  16   10   11 2
  17   10   12 am
  18   12   13 1
  19   12   39 1
  20   13   14 1
  21   14   15 1
  22   14   16 1
  23   14   17 1
  24   15   18 1
  25   15   40 1
  26   15   41 1
  27   16   42 1
  28   16   43 1
  29   16   44 1
  30   17   45 1
  31   17   46 1
  32   17   47 1
  33   18   48 1
  34   19   20 1
  35   19   49 1
  36   19   50 1
  37   20   21 ar
  38   20   25 ar
  39   21   22 ar
  40   21   51 1
  41   22   23 ar
  42   22   52 1
  43   23   24 ar
  44   23   26 1
  45   24   25 ar
  46   24   53 1
  47   25   54 1
  48   26   27 1
  49   27   55 1
  50   27   56 1
  51   27   57 1
  52   28   29 1
  53   28   58 1
  54   29   30 ar
  55   29   34 ar
  56   30   31 ar
  57   30   36 1
  58   31   32 ar
  59   31   59 1
  60   32   33 ar
  61   32   35 1
  62   33   34 ar
  63   33   60 1
  64   34   61 1

#	End of record

