#	Name: ASD00844972
#	Creating user name:	WinNT
#	Creation time:	15. 06. 2019 18:51

#	Modifying user name:	WinNT
#	Modification time:	15. 06. 2019 18:51

#	Program:	/corina/corina34_cracker 3.40 0067  02.08.2006

@<TRIPOS>MOLECULE
ASD00844972
 101  106    0    0    0
SMALL
NO_CHARGES


@<TRIPOS>ATOM
   1 F1             5.6864    -2.0293    -2.1456 F       
   2 C2             0.6594     1.3200    -0.6314 C.ar    
   3 C3             0.9375    -0.0204    -0.8554 C.ar    
   4 C4             0.8459    -0.9294     0.1889 C.ar    
   5 C5             0.4782    -0.4978     1.4484 C.ar    
   6 C6             0.2011     0.8390     1.6690 C.ar    
   7 C7             0.2921     1.7467     0.6303 C.ar    
   8 C8             1.1467    -2.3865    -0.0510 C.3     
   9 C9             0.8545    -3.1999     1.1919 C.2     
  10 C10            0.3364    -2.9113    -1.2379 C.3     
  11 C11           -1.1268    -2.6319    -1.0100 C.2     
  12 N12           -2.0416    -3.0601    -1.9024 N.am    
  13 O13           -1.4812    -2.0217    -0.0237 O.2     
  14 C14           -3.4570    -2.6934    -1.7580 C.3     
  15 C15           -4.3018    -3.9712    -1.7771 C.3     
  16 C16           -3.9852    -4.7684    -3.0445 C.3     
  17 C17           -2.5075    -5.1664    -3.0430 C.3     
  18 C18           -1.6414    -3.8975    -3.0414 C.3     
  19 N19           -4.8178    -5.9780    -3.0826 N.3     
  20 C20           -4.6275    -6.7089    -4.3432 C.3     
  21 C21           -5.4490    -7.9998    -4.3104 C.3     
  22 N22           -6.8663    -7.6703    -4.1049 N.3     
  23 C23           -7.0567    -6.9394    -2.8443 C.3     
  24 C24           -6.2351    -5.6485    -2.8771 C.3     
  25 C25           -7.6989    -8.8800    -4.1429 C.3     
  26 O26           -0.2220    -3.3201     1.7375 O.2     
  27 N27            2.0116    -3.7642     1.5767 N.am    
  28 C28            2.6261    -2.5901    -0.2846 C.ar    
  29 C29            3.0709    -3.4265     0.7316 C.ar    
  30 C30            3.4945    -2.1223    -1.2452 C.ar    
  31 C31            4.8309    -2.4857    -1.2048 C.ar    
  32 C32            5.2871    -3.3200    -0.1954 C.ar    
  33 C33            4.4152    -3.7892     0.7683 C.ar    
  34 F34            6.5898    -3.6756    -0.1542 F       
  35 C35            1.8766    -6.3988     2.3608 C.ar    
  36 C36            0.6260    -6.7643     1.8837 C.ar    
  37 C37            2.8984    -7.3282     2.4073 C.ar    
  38 C38            2.6777    -8.6228     1.9787 C.ar    
  39 C39            1.4285    -8.9934     1.5006 C.ar    
  40 C40            0.4019    -8.0632     1.4533 C.ar    
  41 O41            1.2119   -10.2672     1.0795 O.3     
  42 O42           -0.3785    -5.8501     1.8386 O.3     
  43 C43            2.3148   -11.1725     1.1570 C.3     
  44 C44           -1.6396    -6.2961     1.3358 C.3     
  45 C45           -2.6377    -5.1368     1.3612 C.3     
  46 C46           -9.1171    -8.5377    -3.6820 C.3     
  47 C47           -9.9843    -9.7976    -3.7217 C.3     
  48 S48            2.1642    -4.7465     2.9011 S.o2    
  49 O49            3.5290    -4.6840     3.2919 O.2     
  50 O50            1.0906    -4.4163     3.7715 O.2     
  51 O51            1.2985    -0.4427    -2.0956 O.3     
  52 C52            1.2742     0.5280    -3.1441 C.3     
  53 C53            1.7895    -0.1057    -4.4378 C.3     
  54 F54            3.0667    -0.6341    -4.2218 F       
  55 F55            0.9220    -1.1296    -4.8333 F       
  56 H56            0.7343     2.0302    -1.4416 H       
  57 H57            0.4068    -1.2049     2.2616 H       
  58 H58           -0.0868     1.1744     2.6544 H       
  59 H59            0.0752     2.7901     0.8051 H       
  60 H60            0.6638    -2.4127    -2.1502 H       
  61 H61            0.4901    -3.9860    -1.3360 H       
  62 H62           -3.6047    -2.1718    -0.8124 H       
  63 H63           -3.7531    -2.0472    -2.5843 H       
  64 H64           -4.0686    -4.5747    -0.9000 H       
  65 H65           -5.3596    -3.7081    -1.7676 H       
  66 H66           -4.1953    -4.1555    -3.9211 H       
  67 H67           -2.2911    -5.7586    -2.1539 H       
  68 H68           -2.2880    -5.7540    -3.9345 H       
  69 H69           -1.7907    -3.3520    -3.9732 H       
  70 H70           -0.5913    -4.1720    -2.9405 H       
  71 H71           -4.9577    -6.0888    -5.1766 H       
  72 H72           -3.5722    -6.9525    -4.4666 H       
  73 H73           -5.3322    -8.5294    -5.2559 H       
  74 H74           -5.1005    -8.6320    -3.4937 H       
  75 H75           -8.1119    -6.6959    -2.7209 H       
  76 H76           -6.7264    -7.5596    -2.0109 H       
  77 H77           -6.3520    -5.1190    -1.9315 H       
  78 H78           -6.5836    -5.0163    -3.6938 H       
  79 H79           -7.7314    -9.2669    -5.1615 H       
  80 H80           -7.2740    -9.6346    -3.4810 H       
  81 H81            3.1343    -1.4730    -2.0295 H       
  82 H82            4.7770    -4.4384     1.5520 H       
  83 H83            3.8711    -7.0418     2.7790 H       
  84 H84            3.4780    -9.3471     2.0153 H       
  85 H85           -0.5710    -8.3497     1.0820 H       
  86 H86            2.6423   -11.2582     2.1931 H       
  87 H87            2.0073   -12.1520     0.7909 H       
  88 H88            3.1361   -10.7977     0.5462 H       
  89 H89           -1.5182    -6.6486     0.3115 H       
  90 H90           -2.0118    -7.1097     1.9583 H       
  91 H91           -3.5996    -5.4770     0.9777 H       
  92 H92           -2.7590    -4.7843     2.3855 H       
  93 H93           -2.2655    -4.3232     0.7387 H       
  94 H94           -9.0847    -8.1508    -2.6635 H       
  95 H95           -9.5421    -7.7831    -4.3439 H       
  96 H96          -10.9947    -9.5537    -3.3933 H       
  97 H97          -10.0167   -10.1845    -4.7402 H       
  98 H98           -9.5593   -10.5521    -3.0597 H       
  99 H99            0.2524     0.8771    -3.2923 H       
 100 H100           1.9105     1.3707    -2.8738 H       
 101 H101           1.8373     0.6522    -5.2197 H       
@<TRIPOS>BOND
   1    1   31 1
   2    2    3 ar
   3    2    7 ar
   4    2   56 1
   5    3    4 ar
   6    3   51 1
   7    4    5 ar
   8    4    8 1
   9    5    6 ar
  10    5   57 1
  11    6    7 ar
  12    6   58 1
  13    7   59 1
  14    8    9 1
  15    8   10 1
  16    8   28 1
  17    9   26 2
  18    9   27 am
  19   10   11 1
  20   10   60 1
  21   10   61 1
  22   11   12 am
  23   11   13 2
  24   12   14 1
  25   12   18 1
  26   14   15 1
  27   14   62 1
  28   14   63 1
  29   15   16 1
  30   15   64 1
  31   15   65 1
  32   16   17 1
  33   16   19 1
  34   16   66 1
  35   17   18 1
  36   17   67 1
  37   17   68 1
  38   18   69 1
  39   18   70 1
  40   19   20 1
  41   19   24 1
  42   20   21 1
  43   20   71 1
  44   20   72 1
  45   21   22 1
  46   21   73 1
  47   21   74 1
  48   22   23 1
  49   22   25 1
  50   23   24 1
  51   23   75 1
  52   23   76 1
  53   24   77 1
  54   24   78 1
  55   25   46 1
  56   25   79 1
  57   25   80 1
  58   27   48 am
  59   27   29 1
  60   28   29 ar
  61   28   30 ar
  62   29   33 ar
  63   30   31 ar
  64   30   81 1
  65   31   32 ar
  66   32   33 ar
  67   32   34 1
  68   33   82 1
  69   35   36 ar
  70   35   37 ar
  71   35   48 1
  72   36   42 1
  73   36   40 ar
  74   37   38 ar
  75   37   83 1
  76   38   39 ar
  77   38   84 1
  78   39   40 ar
  79   39   41 1
  80   40   85 1
  81   41   43 1
  82   42   44 1
  83   43   86 1
  84   43   87 1
  85   43   88 1
  86   44   45 1
  87   44   89 1
  88   44   90 1
  89   45   91 1
  90   45   92 1
  91   45   93 1
  92   46   47 1
  93   46   94 1
  94   46   95 1
  95   47   96 1
  96   47   97 1
  97   47   98 1
  98   48   49 2
  99   48   50 2
 100   51   52 1
 101   52   53 1
 102   52   99 1
 103   52  100 1
 104   53   54 1
 105   53   55 1
 106   53  101 1

#	End of record

