#	Name: ASD01060002
#	Creating user name:	WinNT
#	Creation time:	15. 06. 2019 18:58

#	Modifying user name:	WinNT
#	Modification time:	15. 06. 2019 18:58

#	Program:	/corina/corina34_cracker 3.40 0067  02.08.2006

@<TRIPOS>MOLECULE
ASD01060002
 130  132    0    0    0
SMALL
NO_CHARGES


@<TRIPOS>ATOM
   1 C1            -1.7633     1.2564     0.5870 C.3     
   2 C2            -2.4062     1.6352     1.9199 C.3     
   3 O3            -1.5343    -0.1586     0.5372 O.3     
   4 O4            -0.5101     1.9365     0.4551 O.3     
   5 C5            -2.6704     1.6465    -0.5796 C.3     
   6 C6            -1.5545     1.1157     3.0786 C.3     
   7 C7            -2.4966     3.1645     2.0348 C.3     
   8 C8            -0.6442    -0.6189     1.5581 C.3     
   9 C9             0.2151     1.5875    -0.7261 C.3     
  10 C10           -1.9828     1.3195    -1.9059 C.3     
  11 C11           -1.2891    -0.3820     2.9223 C.3     
  12 O12           -2.2194     1.3467     4.3520 O.3     
  13 C13           -0.3065    -2.0951     1.3580 C.3     
  14 C14           -0.5972     1.9615    -1.9657 C.3     
  15 C15            1.5451     2.3458    -0.7426 C.3     
  16 C16           -2.6037    -1.1533     3.0390 C.3     
  17 C17           -1.4136     1.5676     5.4080 C.2     
  18 C18            0.8352    -2.4888     2.2931 C.3     
  19 C19           -0.7330     3.4809    -2.0600 C.3     
  20 C20            2.4151     1.8749     0.4246 C.3     
  21 C21           -1.9575     1.7642     6.7616 C.2     
  22 O22           -0.2099     1.6037     5.2463 O.2     
  23 C23            1.1123    -3.9936     2.2454 C.3     
  24 C24            3.6903     2.7183     0.4828 C.3     
  25 O25            2.7608     0.5011     0.2370 O.3     
  26 C26           -1.1029     1.9703     7.7625 C.2     
  27 C27            2.3118    -4.2904     3.1043 C.2     
  28 C28           -0.1146    -4.7618     2.7282 C.3     
  29 C29           -1.5462     2.1530     9.1840 C.3     
  30 C30            2.2894    -5.0775     4.1647 C.2     
  31 C31            0.1251    -6.2635     2.5600 C.3     
  32 C32           -0.3689     2.0246    10.1466 C.3     
  33 C33           -2.6746     1.1903     9.5385 C.3     
  34 C34            3.5240    -5.2844     4.9546 C.2     
  35 C35            0.0126     0.5753    10.4547 C.3     
  36 O36            0.7649     2.7015     9.5887 O.3     
  37 C37            3.4963    -6.1293     5.9845 C.2     
  38 C38            1.1615     0.5678    11.4313 C.2     
  39 C39            0.4293    -0.1219     9.1580 C.3     
  40 C40            4.7227    -6.3611     6.8171 C.3     
  41 C41            1.6008    -0.6488    12.1968 C.3     
  42 O42            1.7618     1.6088    11.6299 O.2     
  43 C43            4.3851    -6.3945     8.3137 C.3     
  44 C44            2.7295    -1.3738    11.4969 C.3     
  45 C45            0.4270    -1.5228    12.5998 C.3     
  46 C46            4.1362    -4.9737     8.8032 C.3     
  47 C47            3.1641    -7.2864     8.5368 C.3     
  48 C48            2.5272    -2.8550    11.2120 C.3     
  49 O49            3.0751    -0.7002    10.2808 O.3     
  50 C50            3.9869    -4.8645    10.3168 C.3     
  51 O51            2.9756    -4.4504     8.1521 O.3     
  52 C52            3.8424    -3.4125    10.7054 C.2     
  53 C53            1.4673    -3.0770    10.1319 C.3     
  54 C54            5.2536    -5.4020    11.0016 C.3     
  55 O55            2.8554    -5.5954    10.7845 O.3     
  56 O56            4.8044    -2.6825    10.6126 O.2     
  57 H57           -0.5989     1.6494     3.0840 H       
  58 H58            0.2809    -0.0384     1.5074 H       
  59 H59           -3.4130     1.2190     1.9804 H       
  60 H60           -3.5951     1.0603    -0.5147 H       
  61 H61           -2.9209     2.7013    -0.5455 H       
  62 H62           -3.1026     3.5551     1.2173 H       
  63 H63           -2.9558     3.4308     2.9868 H       
  64 H64           -1.4956     3.5926     1.9818 H       
  65 H65            0.4068     0.5142    -0.7245 H       
  66 H66           -1.8815     0.2371    -2.0085 H       
  67 H67           -2.5917     1.6973    -2.7299 H       
  68 H68           -0.6106    -0.7051     3.7143 H       
  69 H69           -1.1840    -2.7094     1.5312 H       
  70 H70            0.0179    -2.2389     0.3198 H       
  71 H71           -0.0736     1.5898    -2.8513 H       
  72 H72            2.0621     2.1521    -1.6824 H       
  73 H73            1.3551     3.4147    -0.6460 H       
  74 H74           -2.4111    -2.2196     2.9206 H       
  75 H75           -3.0464    -0.9706     4.0182 H       
  76 H76           -3.2910    -0.8197     2.2616 H       
  77 H77            1.7432    -1.9571     1.9796 H       
  78 H78            0.5980    -2.1950     3.3137 H       
  79 H79            0.2574     3.9305    -2.1302 H       
  80 H80           -1.3131     3.7395    -2.9459 H       
  81 H81           -1.2403     3.8562    -1.1712 H       
  82 H82            1.8628     1.9864     1.3576 H       
  83 H83           -3.0198     1.7479     6.9183 H       
  84 H84            1.3330    -4.2787     1.2135 H       
  85 H85            4.2426     2.6067    -0.4502 H       
  86 H86            3.4266     3.7662     0.6259 H       
  87 H87            4.3101     2.3828     1.3143 H       
  88 H88            3.3132     0.1348     0.9411 H       
  89 H89           -0.0418     2.0207     7.5254 H       
  90 H90            3.2597    -3.8255     2.8314 H       
  91 H91           -0.2929    -4.5378     3.7799 H       
  92 H92           -0.9836    -4.4646     2.1411 H       
  93 H93           -1.9416     3.1817     9.2766 H       
  94 H94            1.4004    -5.5882     4.5001 H       
  95 H95           -0.7513    -6.8122     2.9049 H       
  96 H96            0.3033    -6.4875     1.5083 H       
  97 H97            0.9940    -6.5607     3.1471 H       
  98 H98           -0.6387     2.5178    11.0912 H       
  99 H99           -2.3301     0.1641     9.4112 H       
 100 H100          -2.9739     1.3472    10.5748 H       
 101 H101          -3.5263     1.3717     8.8829 H       
 102 H102           4.4248    -4.7544     4.6988 H       
 103 H103          -0.8328     0.0504    10.8929 H       
 104 H104           0.6214     3.6446     9.4305 H       
 105 H105           2.5710    -6.6528     6.1730 H       
 106 H106           1.2842     0.3972     8.7248 H       
 107 H107           0.7021    -1.1552     9.3725 H       
 108 H108          -0.4018    -0.1045     8.4529 H       
 109 H109           5.1789    -7.3112     6.5367 H       
 110 H110           5.4440    -5.5614     6.6364 H       
 111 H111           2.0284    -0.2630    13.1574 H       
 112 H112           5.2374    -6.8336     8.8369 H       
 113 H113           3.6260    -1.2954    12.1551 H       
 114 H114          -0.1729    -1.7540    11.7195 H       
 115 H115           0.7975    -2.4484    13.0403 H       
 116 H116          -0.1866    -0.9936    13.3288 H       
 117 H117           5.0018    -4.3554     8.5081 H       
 118 H118           3.3835    -8.2961     8.1899 H       
 119 H119           2.9221    -7.3119     9.5993 H       
 120 H120           2.3161    -6.8872     7.9805 H       
 121 H121           2.2510    -3.3844    12.1230 H       
 122 H122           3.3674     0.2130    10.4063 H       
 123 H123           3.0476    -4.4151     7.1884 H       
 124 H124           1.8016    -2.6273     9.1970 H       
 125 H125           1.3150    -4.1465     9.9867 H       
 126 H126           0.5299    -2.6155    10.4424 H       
 127 H127           6.1160    -4.8180    10.6803 H       
 128 H128           5.1435    -5.3225    12.0831 H       
 129 H129           5.3995    -6.4467    10.7271 H       
 130 H130           2.7265    -5.5506    11.7418 H       
@<TRIPOS>BOND
   1    1    3 1
   2    1    4 1
   3    1    5 1
   4    1    2 1
   5    2    6 1
   6    2    7 1
   7    2   59 1
   8    3    8 1
   9    4    9 1
  10    5   10 1
  11    5   60 1
  12    5   61 1
  13    6   12 1
  14    6   57 1
  15    6   11 1
  16    7   62 1
  17    7   63 1
  18    7   64 1
  19    8   13 1
  20    8   11 1
  21    8   58 1
  22    9   14 1
  23    9   15 1
  24    9   65 1
  25   10   14 1
  26   10   66 1
  27   10   67 1
  28   11   16 1
  29   11   68 1
  30   12   17 1
  31   13   18 1
  32   13   69 1
  33   13   70 1
  34   14   19 1
  35   14   71 1
  36   15   20 1
  37   15   72 1
  38   15   73 1
  39   16   74 1
  40   16   75 1
  41   16   76 1
  42   17   21 1
  43   17   22 2
  44   18   23 1
  45   18   77 1
  46   18   78 1
  47   19   79 1
  48   19   80 1
  49   19   81 1
  50   20   24 1
  51   20   25 1
  52   20   82 1
  53   21   26 2
  54   21   83 1
  55   23   27 1
  56   23   28 1
  57   23   84 1
  58   24   85 1
  59   24   86 1
  60   24   87 1
  61   25   88 1
  62   26   29 1
  63   26   89 1
  64   27   30 2
  65   27   90 1
  66   28   31 1
  67   28   91 1
  68   28   92 1
  69   29   32 1
  70   29   33 1
  71   29   93 1
  72   30   34 1
  73   30   94 1
  74   31   95 1
  75   31   96 1
  76   31   97 1
  77   32   35 1
  78   32   36 1
  79   32   98 1
  80   33   99 1
  81   33  100 1
  82   33  101 1
  83   34   37 2
  84   34  102 1
  85   35   38 1
  86   35   39 1
  87   35  103 1
  88   36  104 1
  89   37   40 1
  90   37  105 1
  91   38   41 1
  92   38   42 2
  93   39  106 1
  94   39  107 1
  95   39  108 1
  96   40   43 1
  97   40  109 1
  98   40  110 1
  99   41   44 1
 100   41   45 1
 101   41  111 1
 102   43   46 1
 103   43   47 1
 104   43  112 1
 105   44   48 1
 106   44   49 1
 107   44  113 1
 108   45  114 1
 109   45  115 1
 110   45  116 1
 111   46   50 1
 112   46   51 1
 113   46  117 1
 114   47  118 1
 115   47  119 1
 116   47  120 1
 117   48   52 1
 118   48   53 1
 119   48  121 1
 120   49  122 1
 121   50   54 1
 122   50   55 1
 123   50   52 1
 124   51  123 1
 125   52   56 2
 126   53  124 1
 127   53  125 1
 128   53  126 1
 129   54  127 1
 130   54  128 1
 131   54  129 1
 132   55  130 1

#	End of record

