#	Name: ASD00844415
#	Creating user name:	WinNT
#	Creation time:	15. 06. 2019 18:50

#	Modifying user name:	WinNT
#	Modification time:	15. 06. 2019 18:50

#	Program:	/corina/corina34_cracker 3.40 0067  02.08.2006

@<TRIPOS>MOLECULE
ASD00844415
  85   90    0    0    0
SMALL
NO_CHARGES


@<TRIPOS>ATOM
   1 F1            -0.0790    -3.1444     4.7191 F       
   2 C2            -0.0058     1.3862     0.0348 C.ar    
   3 C3             0.0089    -0.0007     0.0177 C.ar    
   4 C4             1.2191    -0.6792    -0.0020 C.ar    
   5 C5             2.4058     0.0276    -0.0046 C.ar    
   6 C6             2.3885     1.4103     0.0130 C.ar    
   7 C7             1.1841     2.0886     0.0322 C.ar    
   8 C8             1.2387    -2.1860    -0.0202 C.3     
   9 C9             0.4943    -2.7113    -1.2288 C.2     
  10 N10            2.6179    -2.6800    -0.0123 N.am    
  11 C11            3.4633    -2.3341    -1.0034 C.2     
  12 N12            4.7589    -2.7002    -0.9424 N.am    
  13 O13            3.0571    -1.6917    -1.9524 O.2     
  14 C14            5.6723    -2.4336    -2.0640 C.3     
  15 C15            6.9190    -1.7284    -1.5194 C.3     
  16 N16            7.4921    -2.5273    -0.4280 N.3     
  17 C17            6.5584    -2.6346     0.7010 C.3     
  18 C18            5.2984    -3.3715     0.2499 C.3     
  19 C19            8.7825    -1.9758     0.0066 C.3     
  20 C20            9.2888    -2.7561     1.2230 C.3     
  21 C21           10.6610    -2.2171     1.6336 C.3     
  22 N22           11.5994    -2.3593     0.5131 N.3     
  23 C23           11.1584    -1.5804    -0.6510 C.3     
  24 C24            9.8010    -2.1003    -1.1298 C.3     
  25 H25           12.5344    -2.0990     0.7892 H       
  26 O26            0.7741    -2.5076    -2.3913 O.2     
  27 N27           -0.5341    -3.4458    -0.7730 N.am    
  28 C28            0.4681    -2.7398     1.1569 C.ar    
  29 C29           -0.5791    -3.4836     0.6228 C.ar    
  30 C30            0.6364    -2.6250     2.5192 C.ar    
  31 C31           -0.2428    -3.2550     3.3827 C.ar    
  32 C32           -1.3015    -4.0071     2.8636 C.ar    
  33 C33           -1.4661    -4.1196     1.4833 C.ar    
  34 C34           -0.9895    -5.8322    -2.0662 C.ar    
  35 C35            0.1892    -5.9888    -2.7804 C.ar    
  36 C36           -1.6635    -6.9427    -1.5956 C.ar    
  37 C37           -1.1638    -8.2092    -1.8357 C.ar    
  38 C38            0.0112    -8.3679    -2.5475 C.ar    
  39 C39            0.6885    -7.2610    -3.0204 C.ar    
  40 H40            0.3995    -9.3583    -2.7337 H       
  41 O41            0.8538    -4.8981    -3.2447 O.3     
  42 C42            2.0608    -5.1348    -3.9721 C.3     
  43 C43           -2.2161    -4.6624     3.7495 C.1     
  44 N44           -2.9417    -5.1822     4.4522 N.1     
  45 O45           -1.1600    -0.6939     0.0207 O.3     
  46 C46           -2.3673     0.0703     0.0419 C.3     
  47 C47           -3.5698    -0.8757     0.0422 C.3     
  48 F48           -3.5398    -1.6684    -1.1102 F       
  49 F49           -3.5173    -1.6963     1.1740 F       
  50 S50           -1.6229    -4.2181    -1.7531 S.o2    
  51 O51           -2.8035    -4.3930    -0.9817 O.2     
  52 O52           -1.6017    -3.5305    -2.9965 O.2     
  53 H53           -0.9465     1.9166     0.0457 H       
  54 H54            3.3480    -0.5000    -0.0199 H       
  55 H55            3.3174     1.9611     0.0117 H       
  56 H56            1.1732     3.1684     0.0459 H       
  57 H57            2.9226    -3.2561     0.7061 H       
  58 H58            5.9596    -3.3743    -2.5338 H       
  59 H59            5.1783    -1.7923    -2.7940 H       
  60 H60            7.6542    -1.6218    -2.3170 H       
  61 H61            6.6443    -0.7429    -1.1433 H       
  62 H62            7.0321    -3.1853     1.5137 H       
  63 H63            6.2888    -1.6365     1.0462 H       
  64 H64            4.5575    -3.3531     1.0491 H       
  65 H65            5.5469    -4.4032     0.0009 H       
  66 H66            8.6589    -0.9261     0.2729 H       
  67 H67            8.5885    -2.6361     2.0496 H       
  68 H68            9.3741    -3.8124     0.9680 H       
  69 H69           10.5723    -1.1643     1.9017 H       
  70 H70           11.0307    -2.7800     2.4906 H       
  71 H71           11.0674    -0.5306    -0.3723 H       
  72 H72           11.8894    -1.6809    -1.4533 H       
  73 H73            9.8944    -3.1463    -1.4218 H       
  74 H74            9.4667    -1.5119    -1.9842 H       
  75 H75            1.4559    -2.0428     2.9141 H       
  76 H76           -2.2837    -4.7005     1.0829 H       
  77 H77           -2.5813    -6.8213    -1.0395 H       
  78 H78           -1.6917    -9.0759    -1.4664 H       
  79 H79            1.6057    -7.3855    -3.5769 H       
  80 H80            2.7714    -5.6616    -3.3352 H       
  81 H81            1.8423    -5.7408    -4.8513 H       
  82 H82            2.4894    -4.1825    -4.2845 H       
  83 H83           -2.3907     0.6879     0.9398 H       
  84 H84           -2.4082     0.7096    -0.8399 H       
  85 H85           -4.4907    -0.2929     0.0584 H       
@<TRIPOS>BOND
   1    1   31 1
   2    2    3 ar
   3    2    7 ar
   4    2   53 1
   5    3    4 ar
   6    3   45 1
   7    4    5 ar
   8    4    8 1
   9    5    6 ar
  10    5   54 1
  11    6    7 ar
  12    6   55 1
  13    7   56 1
  14    8    9 1
  15    8   10 1
  16    8   28 1
  17    9   26 2
  18    9   27 am
  19   10   11 am
  20   10   57 1
  21   11   12 am
  22   11   13 2
  23   12   14 1
  24   12   18 1
  25   14   15 1
  26   14   58 1
  27   14   59 1
  28   15   16 1
  29   15   60 1
  30   15   61 1
  31   16   17 1
  32   16   19 1
  33   17   18 1
  34   17   62 1
  35   17   63 1
  36   18   64 1
  37   18   65 1
  38   19   20 1
  39   19   24 1
  40   19   66 1
  41   20   21 1
  42   20   67 1
  43   20   68 1
  44   21   22 1
  45   21   69 1
  46   21   70 1
  47   22   23 1
  48   22   25 1
  49   23   24 1
  50   23   71 1
  51   23   72 1
  52   24   73 1
  53   24   74 1
  54   27   50 am
  55   27   29 1
  56   28   29 ar
  57   28   30 ar
  58   29   33 ar
  59   30   31 ar
  60   30   75 1
  61   31   32 ar
  62   32   33 ar
  63   32   43 1
  64   33   76 1
  65   34   35 ar
  66   34   36 ar
  67   34   50 1
  68   35   41 1
  69   35   39 ar
  70   36   37 ar
  71   36   77 1
  72   37   38 ar
  73   37   78 1
  74   38   39 ar
  75   38   40 1
  76   39   79 1
  77   41   42 1
  78   42   80 1
  79   42   81 1
  80   42   82 1
  81   43   44 3
  82   45   46 1
  83   46   47 1
  84   46   83 1
  85   46   84 1
  86   47   48 1
  87   47   49 1
  88   47   85 1
  89   50   51 2
  90   50   52 2

#	End of record

