#	Name: ASD01140033
#	Creating user name:	WinNT
#	Creation time:	15. 06. 2019 18:59

#	Modifying user name:	WinNT
#	Modification time:	15. 06. 2019 18:59

#	Program:	/corina/corina34_cracker 3.40 0067  02.08.2006

@<TRIPOS>MOLECULE
ASD01140033
  56   59    0    0    0
SMALL
NO_CHARGES


@<TRIPOS>ATOM
   1 C1            -0.2719     1.6936    -0.0405 C.3     
   2 C2            -0.3345     0.1649    -0.0219 C.3     
   3 C3             0.4250    -0.3918    -1.2277 C.3     
   4 C4             1.8849     0.0615    -1.1653 C.3     
   5 C5             1.9460     1.5900    -1.1852 C.3     
   6 C6             3.4049     2.0445    -1.1436 C.3     
   7 C7             3.4772     3.5747    -1.1327 C.3     
   8 C8             2.7357     4.0953     0.0961 C.3     
   9 C9             2.7662     5.6052     0.1802 C.3     
  10 C10            4.1498     6.2485     0.2252 C.3     
  11 C11            3.9950     7.4991     1.1242 C.3     
  12 C12            2.5303     7.4914     1.6376 C.3     
  13 C13            2.1359     6.0119     1.5407 C.3     
  14 C14            0.6400     5.7518     1.4468 C.3     
  15 C15            0.4740     4.2707     1.1340 C.2     
  16 C16            1.2602     3.6687    -0.0010 C.3     
  17 C17            1.1885     2.1444     0.0252 C.3     
  18 O18           -0.2780     3.5879     1.7872 O.2     
  19 C19            2.7644     5.2138     2.6848 C.3     
  20 C20            1.8279     1.6204     1.3126 C.3     
  21 O21           -0.1729     0.0923    -2.4320 O.3     
  22 C22            2.4641     7.9678     3.0658 C.2     
  23 O23            3.4275     7.8549     3.7852 O.2     
  24 C24            1.1958     8.5850     3.5963 C.3     
  25 H25            1.4783     1.9588    -2.0980 H       
  26 H26            3.1806     3.6716     0.9964 H       
  27 H27            0.8476     4.0172    -0.9478 H       
  28 H28            2.1872     6.0321    -0.6388 H       
  29 H29           -0.7258     2.0648    -0.9594 H       
  30 H30           -0.8135     2.0901     0.8183 H       
  31 H31            0.1201    -0.2061     0.8967 H       
  32 H32           -1.3750    -0.1566    -0.0678 H       
  33 H33            0.3818    -1.4808    -1.2131 H       
  34 H34            2.3412    -0.3085    -0.2471 H       
  35 H35            2.4254    -0.3349    -2.0248 H       
  36 H36            3.8800     1.6534    -0.2439 H       
  37 H37            3.9274     1.6639    -2.0212 H       
  38 H38            4.5196     3.8906    -1.0911 H       
  39 H39            3.0101     3.9687    -2.0352 H       
  40 H40            4.8726     5.5583     0.6602 H       
  41 H41            4.4625     6.5409    -0.7772 H       
  42 H42            4.6864     7.4432     1.9651 H       
  43 H43            4.1833     8.4025     0.5440 H       
  44 H44            1.8944     8.1023     0.9969 H       
  45 H45            0.1597     5.9888     2.3961 H       
  46 H46            0.2062     6.3529     0.6476 H       
  47 H47            3.8483     5.3239     2.6521 H       
  48 H48            2.3897     5.5880     3.6375 H       
  49 H49            2.5029     4.1608     2.5798 H       
  50 H50            1.7835     0.5313     1.3231 H       
  51 H51            2.8684     1.9420     1.3585 H       
  52 H52            1.2875     2.0144     2.1732 H       
  53 H53           -1.1007    -0.1581    -2.5388 H       
  54 H54            0.4427     8.6017     2.8084 H       
  55 H55            0.8290     7.9960     4.4369 H       
  56 H56            1.3982     9.6036     3.9271 H       
@<TRIPOS>BOND
   1    1    2 1
   2    1   17 1
   3    1   29 1
   4    1   30 1
   5    2    3 1
   6    2   31 1
   7    2   32 1
   8    3    4 1
   9    3   21 1
  10    3   33 1
  11    4    5 1
  12    4   34 1
  13    4   35 1
  14    5    6 1
  15    5   17 1
  16    5   25 1
  17    6    7 1
  18    6   36 1
  19    6   37 1
  20    7    8 1
  21    7   38 1
  22    7   39 1
  23    8    9 1
  24    8   26 1
  25    8   16 1
  26    9   10 1
  27    9   13 1
  28    9   28 1
  29   10   11 1
  30   10   40 1
  31   10   41 1
  32   11   12 1
  33   11   42 1
  34   11   43 1
  35   12   13 1
  36   12   22 1
  37   12   44 1
  38   13   14 1
  39   13   19 1
  40   14   15 1
  41   14   45 1
  42   14   46 1
  43   15   16 1
  44   15   18 2
  45   16   27 1
  46   16   17 1
  47   17   20 1
  48   19   47 1
  49   19   48 1
  50   19   49 1
  51   20   50 1
  52   20   51 1
  53   20   52 1
  54   21   53 1
  55   22   23 2
  56   22   24 1
  57   24   54 1
  58   24   55 1
  59   24   56 1

#	End of record

