#	Name: ASD03331546
#	Creating user name:	WinNT
#	Creation time:	15. 06. 2019 20:39

#	Modifying user name:	WinNT
#	Modification time:	15. 06. 2019 20:39

#	Program:	/corina/corina34_cracker 3.40 0067  02.08.2006

@<TRIPOS>MOLECULE
ASD03331546
  58   60    0    0    0
SMALL
NO_CHARGES


@<TRIPOS>ATOM
   1 C1            -0.0088     0.4899    -0.3742 C.ar    
   2 C2            -0.0050    -0.6213    -1.2213 C.ar    
   3 C3             1.1656     1.3870    -0.3209 C.2     
   4 N4             1.1283     2.7517    -0.3669 N.pl3   
   5 C5             2.4120     3.1941    -0.3057 C.2     
   6 C6             3.2122     2.0965    -0.2075 C.2     
   7 N7             2.4164     1.0047    -0.2159 N.2     
   8 C8            -0.0710     3.5896    -0.4535 C.3     
   9 C9             0.2791     4.9099    -1.1436 C.3     
  10 C10            0.7299     5.9351    -0.1043 C.3     
  11 C11            1.9833     5.4491     0.6167 C.3     
  12 C12            2.8470     4.6351    -0.3519 C.3     
  13 C13            4.6821     2.0994    -0.1042 C.2     
  14 O14            5.2894     3.1531    -0.1018 O.2     
  15 N15            5.3535     0.9344    -0.0125 N.am    
  16 C16            6.8149     0.9373     0.0902 C.3     
  17 C17            7.3571    -0.3714    -0.4240 C.2     
  18 C18            6.5598     0.0351     2.4061 C.3     
  19 N19            8.5946    -0.4259    -0.9553 N.am    
  20 O20            6.6800    -1.3755    -0.3598 O.2     
  21 C21            7.2230     1.1187     1.5535 C.3     
  22 C22            8.7438     1.0049     1.6767 C.3     
  23 C23            6.7736     2.4975     2.0412 C.3     
  24 C24            9.0796    -1.6709    -1.5560 C.3     
  25 C25           -1.1063    -1.4554    -1.2658 C.ar    
  26 C26           -2.2097    -1.1909    -0.4736 C.ar    
  27 C27           -2.2181    -0.0902     0.3674 C.ar    
  28 C28           -1.1277     0.7528     0.4171 C.ar    
  29 F29            1.0719    -0.8795    -1.9952 F       
  30 Cl30          -3.5895    -2.2426    -0.5344 Cl      
  31 H31           -0.8365     3.0701    -1.0298 H       
  32 H32           -0.4461     3.7921     0.5497 H       
  33 H33            1.0838     4.7421    -1.8595 H       
  34 H34           -0.5981     5.2880    -1.6685 H       
  35 H35            0.9448     6.8809    -0.6017 H       
  36 H36           -0.0682     6.0849     0.6229 H       
  37 H37            2.5511     6.3072     0.9764 H       
  38 H38            1.6966     4.8231     1.4617 H       
  39 H39            3.8939     4.7096    -0.0577 H       
  40 H40            2.7229     5.0212    -1.3637 H       
  41 H41            4.8691     0.0940    -0.0144 H       
  42 H42            7.2192     1.7567    -0.5040 H       
  43 H43            6.8799    -0.9472     2.0587 H       
  44 H44            6.8505     0.1643     3.4486 H       
  45 H45            5.4763     0.1161     2.3183 H       
  46 H46            9.1640     0.3592    -0.9399 H       
  47 H47            9.2152     1.8106     1.1139 H       
  48 H48            9.0299     1.0789     2.7259 H       
  49 H49            9.0697     0.0442     1.2781 H       
  50 H50            5.6901     2.5786     1.9534 H       
  51 H51            7.0643     2.6267     3.0837 H       
  52 H52            7.2461     3.2695     1.4338 H       
  53 H53            9.0806    -2.4606    -0.8046 H       
  54 H54            8.4262    -1.9551    -2.3808 H       
  55 H55           10.0930    -1.5235    -1.9295 H       
  56 H56           -1.1059    -2.3147    -1.9200 H       
  57 H57           -3.0825     0.1108     0.9828 H       
  58 H58           -1.1364     1.6101     1.0738 H       
@<TRIPOS>BOND
   1    1    2 ar
   2    1    3 1
   3    1   28 ar
   4    2   25 ar
   5    2   29 1
   6    3    4 1
   7    3    7 2
   8    4    5 1
   9    4    8 1
  10    5    6 2
  11    5   12 1
  12    6    7 1
  13    6   13 1
  14    8    9 1
  15    8   31 1
  16    8   32 1
  17    9   10 1
  18    9   33 1
  19    9   34 1
  20   10   11 1
  21   10   35 1
  22   10   36 1
  23   11   12 1
  24   11   37 1
  25   11   38 1
  26   12   39 1
  27   12   40 1
  28   13   14 2
  29   13   15 am
  30   15   16 1
  31   15   41 1
  32   16   21 1
  33   16   17 1
  34   16   42 1
  35   17   19 am
  36   17   20 2
  37   18   21 1
  38   18   43 1
  39   18   44 1
  40   18   45 1
  41   19   24 1
  42   19   46 1
  43   21   22 1
  44   21   23 1
  45   22   47 1
  46   22   48 1
  47   22   49 1
  48   23   50 1
  49   23   51 1
  50   23   52 1
  51   24   53 1
  52   24   54 1
  53   24   55 1
  54   25   26 ar
  55   25   56 1
  56   26   27 ar
  57   26   30 1
  58   27   28 ar
  59   27   57 1
  60   28   58 1

#	End of record

