#	Name: ASD07030006
#	Creating user name:	WinNT
#	Creation time:	15. 06. 2019 21:08

#	Modifying user name:	WinNT
#	Modification time:	15. 06. 2019 21:08

#	Program:	/corina/corina34_cracker 3.40 0067  02.08.2006

@<TRIPOS>MOLECULE
ASD07030006
  46   49    0    0    0
SMALL
NO_CHARGES


@<TRIPOS>ATOM
   1 C1            -0.0187     1.5258     0.0104 C.3     
   2 C2             0.0021    -0.0041     0.0020 C.3     
   3 N3             1.3595     2.0342     0.0000 N.3     
   4 N4            -1.3761    -0.5125     0.0124 N.3     
   5 C5            -1.3954    -1.9814     0.0047 C.3     
   6 C6            -2.6290    -2.6748     0.5864 C.3     
   7 C7            -2.3959    -2.6699    -0.9257 C.3     
   8 C8             1.3788     3.5031     0.0077 C.3     
   9 C9             2.6233     4.1903     0.5731 C.3     
  10 C10            2.3614     4.2017    -0.9343 C.3     
  11 C11            2.0595     7.8547     2.7024 C.ar    
  12 C12            2.6358     6.7575     3.3392 C.ar    
  13 C13            2.8159     5.5772     2.6469 C.ar    
  14 C14            2.4246     5.4819     1.3236 C.ar    
  15 C15            1.8519     6.5680     0.6865 C.ar    
  16 C16            1.6676     7.7533     1.3691 C.ar    
  17 C17            1.8577     9.1245     3.4434 C.ar    
  18 C18            1.2814    10.2216     2.8064 C.ar    
  19 C19            1.0960    11.4009     3.5010 C.ar    
  20 C20            1.4820    11.4934     4.8275 C.ar    
  21 C21            2.0547    10.4072     5.4633 C.ar    
  22 C22            2.2387     9.2219     4.7799 C.ar    
  23 Cl23           0.3787    12.7694     2.7095 Cl      
  24 H24           -0.5459     1.8868    -0.8726 H       
  25 H25           -0.5289     1.8773     0.9072 H       
  26 H26            0.5123    -0.3556    -0.8948 H       
  27 H27            0.5293    -0.3651     0.8851 H       
  28 H28            1.8883     1.6616     0.7744 H       
  29 H29           -1.8899    -0.1483     0.8007 H       
  30 H30           -0.4297    -2.4650     0.1524 H       
  31 H31           -2.4750    -3.6147     1.1163 H       
  32 H32           -3.4263    -2.0410     0.9748 H       
  33 H33           -3.0398    -2.0330    -1.5322 H       
  34 H34           -2.0885    -3.6067    -1.3906 H       
  35 H35            0.4162     3.9852     0.1786 H       
  36 H36            3.4278     3.5525     0.9394 H       
  37 H37            2.9936     3.5713    -1.5597 H       
  38 H38            2.0453     5.1433    -1.3831 H       
  39 H39            2.9417     6.8308     4.3724 H       
  40 H40            3.2628     4.7262     3.1394 H       
  41 H41            1.5489     6.4884    -0.3470 H       
  42 H42            1.2207     8.6008     0.8706 H       
  43 H43            0.9805    10.1500     1.7716 H       
  44 H44            1.3355    12.4172     5.3673 H       
  45 H45            2.3543    10.4848     6.4980 H       
  46 H46            2.6818     8.3730     5.2793 H       
@<TRIPOS>BOND
   1    1    2 1
   2    1    3 1
   3    1   24 1
   4    1   25 1
   5    2    4 1
   6    2   26 1
   7    2   27 1
   8    3    8 1
   9    3   28 1
  10    4    5 1
  11    4   29 1
  12    5    6 1
  13    5    7 1
  14    5   30 1
  15    6    7 1
  16    6   31 1
  17    6   32 1
  18    7   33 1
  19    7   34 1
  20    8    9 1
  21    8   10 1
  22    8   35 1
  23    9   10 1
  24    9   14 1
  25    9   36 1
  26   10   37 1
  27   10   38 1
  28   11   12 ar
  29   11   16 ar
  30   11   17 1
  31   12   13 ar
  32   12   39 1
  33   13   14 ar
  34   13   40 1
  35   14   15 ar
  36   15   16 ar
  37   15   41 1
  38   16   42 1
  39   17   18 ar
  40   17   22 ar
  41   18   19 ar
  42   18   43 1
  43   19   20 ar
  44   19   23 1
  45   20   21 ar
  46   20   44 1
  47   21   22 ar
  48   21   45 1
  49   22   46 1

#	End of record

