#	Name: ASD01120258
#	Creating user name:	WinNT
#	Creation time:	15. 06. 2019 18:59

#	Modifying user name:	WinNT
#	Modification time:	15. 06. 2019 18:59

#	Program:	/corina/corina34_cracker 3.40 0067  02.08.2006

@<TRIPOS>MOLECULE
ASD01120258
  65   66    0    0    0
SMALL
NO_CHARGES


@<TRIPOS>ATOM
   1 C1            -0.0167     1.3779     0.0096 C.ar    
   2 C2             0.0021    -0.0041     0.0020 C.ar    
   3 C3            -1.1857    -0.7116     0.0095 C.ar    
   4 C4            -2.3919    -0.0369     0.0251 C.ar    
   5 C5            -2.4106     1.3455     0.0336 C.ar    
   6 C6            -1.2232     2.0528     0.0305 C.ar    
   7 S7            -3.9483     2.2057     0.0529 S.o2    
   8 N8            -4.3616     2.4354     1.6399 N.am    
   9 C9            -3.6009     3.2212     2.4274 C.2     
  10 N10           -3.9372     3.4082     3.7191 N.am    
  11 O11           -3.6934     3.4955    -0.4862 O.2     
  12 O12           -4.9136     1.3142    -0.4882 O.2     
  13 O13           -2.6111     3.7615     1.9726 O.2     
  14 C14           -1.8352    12.0489    14.8559 C.ar    
  15 C15           -2.9614    12.7709    15.2031 C.ar    
  16 C16           -3.9984    12.1528    15.8770 C.ar    
  17 C17           -3.9088    10.8127    16.2034 C.ar    
  18 C18           -2.7822    10.0904    15.8561 C.ar    
  19 C19           -1.7481    10.7070    15.1774 C.ar    
  20 S20           -2.6680     8.3821    16.2722 S.o2    
  21 N21           -3.3065     7.5256    15.0068 N.am    
  22 C22           -2.7030     7.5527    13.8020 C.2     
  23 N23           -3.2226     6.8557    12.7722 N.am    
  24 O24           -1.2822     8.0699    16.3093 O.2     
  25 O25           -3.5404     8.1786    17.3752 O.2     
  26 O26           -1.6898     8.2060    13.6442 O.2     
  27 C27           -0.7050    12.7227    14.1214 C.3     
  28 C28            1.2780     2.1491     0.0014 C.3     
  29 C29           -2.5666     6.8852    11.4626 C.3     
  30 C30           -3.3534     6.0172    10.4784 C.3     
  31 C31           -2.6683     6.0480     9.1107 C.3     
  32 C32           -3.7082     4.3052     5.9828 C.3     
  33 C33           -3.1103     4.2624     4.5751 C.3     
  34 O34           -3.4031     5.2373     8.1915 O.3     
  35 C35           -2.8446     5.1973     6.8768 C.3     
  36 H36            0.9446    -0.5313    -0.0101 H       
  37 H37           -1.1711    -1.7915     0.0029 H       
  38 H38           -3.3198    -0.5895     0.0302 H       
  39 H39           -1.2378     3.1327     0.0372 H       
  40 H40           -5.1512     2.0044     2.0027 H       
  41 H41           -4.7269     2.9772     4.0819 H       
  42 H42           -3.0313    13.8181    14.9484 H       
  43 H43           -4.8781    12.7171    16.1489 H       
  44 H44           -4.7185    10.3300    16.7304 H       
  45 H45           -0.8680    10.1428    14.9060 H       
  46 H46           -4.1148     7.0044    15.1327 H       
  47 H47           -4.0309     6.3345    12.8981 H       
  48 H48            0.0030    13.1328    14.8416 H       
  49 H49           -0.1982    11.9947    13.4879 H       
  50 H50           -1.1022    13.5280    13.5034 H       
  51 H51            1.5804     2.3405    -1.0282 H       
  52 H52            1.1397     3.0969     0.5217 H       
  53 H53            2.0505     1.5677     0.5048 H       
  54 H54           -2.5333     7.9111    11.0959 H       
  55 H55           -1.5514     6.4995    11.5560 H       
  56 H56           -3.3867     4.9912    10.8451 H       
  57 H57           -4.3686     6.4028    10.3850 H       
  58 H58           -2.6349     7.0739     8.7441 H       
  59 H59           -1.6531     5.6623     9.2041 H       
  60 H60           -4.7198     4.7085     5.9357 H       
  61 H61           -3.7379     3.2969     6.3958 H       
  62 H62           -2.0987     3.8591     4.6222 H       
  63 H63           -3.0806     5.2707     4.1621 H       
  64 H64           -1.8331     4.7940     6.9238 H       
  65 H65           -2.8149     6.2056     6.4638 H       
@<TRIPOS>BOND
   1    1    2 ar
   2    1   28 1
   3    1    6 ar
   4    2    3 ar
   5    2   36 1
   6    3    4 ar
   7    3   37 1
   8    4    5 ar
   9    4   38 1
  10    5    6 ar
  11    5    7 1
  12    6   39 1
  13    7    8 am
  14    7   11 2
  15    7   12 2
  16    8    9 am
  17    8   40 1
  18    9   10 am
  19    9   13 2
  20   10   33 1
  21   10   41 1
  22   14   15 ar
  23   14   27 1
  24   14   19 ar
  25   15   16 ar
  26   15   42 1
  27   16   17 ar
  28   16   43 1
  29   17   18 ar
  30   17   44 1
  31   18   19 ar
  32   18   20 1
  33   19   45 1
  34   20   21 am
  35   20   24 2
  36   20   25 2
  37   21   22 am
  38   21   46 1
  39   22   23 am
  40   22   26 2
  41   23   29 1
  42   23   47 1
  43   27   48 1
  44   27   49 1
  45   27   50 1
  46   28   51 1
  47   28   52 1
  48   28   53 1
  49   29   30 1
  50   29   54 1
  51   29   55 1
  52   30   31 1
  53   30   56 1
  54   30   57 1
  55   31   34 1
  56   31   58 1
  57   31   59 1
  58   32   33 1
  59   32   35 1
  60   32   60 1
  61   32   61 1
  62   33   62 1
  63   33   63 1
  64   34   35 1
  65   35   64 1
  66   35   65 1

#	End of record

