#	Name: ASD02030657
#	Creating user name:	WinNT
#	Creation time:	15. 06. 2019 20:15

#	Modifying user name:	WinNT
#	Modification time:	15. 06. 2019 20:15

#	Program:	/corina/corina34_cracker 3.40 0067  02.08.2006

@<TRIPOS>MOLECULE
ASD02030657
  38   41    0    0    0
SMALL
NO_CHARGES


@<TRIPOS>ATOM
   1 C1            -0.0229     1.3336     0.3726 C.2     
   2 N2            -0.0011    -0.0173     0.1777 N.am    
   3 N3             2.3492     0.0272     0.2934 N.2     
   4 C4             2.3690     1.3408     0.4838 C.2     
   5 C5             1.1762     2.0307     0.5289 C.2     
   6 C6            -1.0826    -0.8455     0.0074 C.2     
   7 C7            -0.8776    -2.1388    -0.1711 C.2     
   8 S8             0.8812    -2.3505    -0.1207 S.3     
   9 C9             1.2144    -0.6303     0.1448 C.2     
  10 O10           -1.0874     1.9307     0.4051 O.2     
  11 C11            3.6782     2.0682     0.6507 C.3     
  12 N12            4.0973     2.0037     2.0530 N.pl3   
  13 C13            4.3233     2.5323     4.1722 C.2     
  14 N14            3.7671     2.9253     3.0550 N.2     
  15 C15            4.8650     1.0427     2.6090 C.2     
  16 C16            5.0221     1.3474     3.9196 C.2     
  17 C17            4.2255     3.2339     5.5023 C.3     
  18 Cl18           5.5310    -0.3363     1.7915 Cl      
  19 F19            3.3496     4.3193     5.3937 F       
  20 F20            3.7446     2.3411     6.4661 F       
  21 F21            5.4916     3.6924     5.8819 F       
  22 C22           -1.9198    -3.2081    -0.3746 C.3     
  23 C23           -2.4827    -0.2883     0.0243 C.3     
  24 C24           -2.8996     0.6101    -1.1419 C.3     
  25 C25           -3.4627    -0.8081    -1.0294 C.3     
  26 C26           -1.9024     0.8639    -2.1946 C.1     
  27 N27           -1.1328     1.0598    -3.0069 N.1     
  28 H28            1.1697     3.0996     0.6833 H       
  29 H29            4.4365     1.6002     0.0230 H       
  30 H30            3.5551     3.1103     0.3559 H       
  31 H31            5.5869     0.7763     4.6416 H       
  32 H32           -2.1241    -3.3183    -1.4396 H       
  33 H33           -1.5529    -4.1537     0.0246 H       
  34 H34           -2.8361    -2.9258     0.1439 H       
  35 H35           -2.8824    -0.0510     1.0102 H       
  36 H36           -3.5739     1.4381    -0.9233 H       
  37 H37           -3.0947    -1.5531    -1.7348 H       
  38 H38           -4.5074    -0.9130    -0.7368 H       
@<TRIPOS>BOND
   1    1    2 am
   2    1    5 1
   3    1   10 2
   4    2    6 1
   5    2    9 1
   6    3    4 1
   7    3    9 2
   8    4    5 2
   9    4   11 1
  10    5   28 1
  11    6    7 2
  12    6   23 1
  13    7    8 1
  14    7   22 1
  15    8    9 1
  16   11   12 1
  17   11   29 1
  18   11   30 1
  19   12   15 1
  20   12   14 1
  21   13   14 2
  22   13   16 1
  23   13   17 1
  24   15   16 2
  25   15   18 1
  26   16   31 1
  27   17   19 1
  28   17   20 1
  29   17   21 1
  30   22   32 1
  31   22   33 1
  32   22   34 1
  33   23   24 1
  34   23   25 1
  35   23   35 1
  36   24   25 1
  37   24   26 1
  38   24   36 1
  39   25   37 1
  40   25   38 1
  41   26   27 3

#	End of record

