#	Name: ASD00069478
#	Creating user name:	WinNT
#	Creation time:	15. 06. 2019 18:29

#	Modifying user name:	WinNT
#	Modification time:	15. 06. 2019 18:29

#	Program:	/corina/corina34_cracker 3.40 0067  02.08.2006

@<TRIPOS>MOLECULE
ASD00069478
  46   48    0    0    0
SMALL
NO_CHARGES


@<TRIPOS>ATOM
   1 O1            -0.0174     1.4305     0.0099 O.3     
   2 B2             0.0021    -0.0041     0.0020 Du      
   3 O3             1.0670    -0.3534    -0.8937 O.3     
   4 C4            -0.9361    -0.9782     0.7993 C.ar    
   5 C5            -0.7933    -2.3591     0.6870 C.ar    
   6 C6            -1.9327    -0.4821     1.6448 C.ar    
   7 C7            -2.7379    -1.3693     2.3297 C.ar    
   8 N8            -2.5789    -2.6720     2.1971 N.ar    
   9 C9            -1.6462    -3.1860     1.4121 C.ar    
  10 C10            2.1089     0.6053    -0.6139 C.3     
  11 C11            1.3736     1.8147    -0.0013 C.3     
  12 C12            1.5763     3.0578    -0.8700 C.3     
  13 C13            1.8670     2.0726     1.4238 C.3     
  14 C14            3.1105     0.0270     0.3877 C.3     
  15 C15            2.8198     1.0122    -1.9062 C.3     
  16 N16           -1.5197    -4.5664     1.3070 N.pl3   
  17 C17           -0.5639    -6.6475     0.5040 C.ar    
  18 C18           -1.3692    -7.3381    -0.3822 C.ar    
  19 C19           -1.4330    -8.7179    -0.3271 C.ar    
  20 C20           -0.6912    -9.4071     0.6140 C.ar    
  21 C21            0.1148    -8.7165     1.4996 C.ar    
  22 C22            0.1775    -7.3367     1.4454 C.ar    
  23 C23           -0.4896    -5.1437     0.4399 C.3     
  24 H24           -0.0328    -2.7816     0.0470 H       
  25 H25           -2.0706     0.5828     1.7609 H       
  26 H26           -3.5093    -0.9914     2.9842 H       
  27 H27            1.1819     2.8713    -1.8689 H       
  28 H28            1.0512     3.9024    -0.4239 H       
  29 H29            2.6403     3.2853    -0.9361 H       
  30 H30            2.9371     2.2793     1.4061 H       
  31 H31            1.3383     2.9292     1.8419 H       
  32 H32            1.6771     1.1929     2.0388 H       
  33 H33            3.5790    -0.8603    -0.0381 H       
  34 H34            3.8754     0.7717     0.6077 H       
  35 H35            2.5906    -0.2424     1.3071 H       
  36 H36            2.0954     1.4363    -2.6014 H       
  37 H37            3.5854     1.7548    -1.6813 H       
  38 H38            3.2852     0.1354    -2.3564 H       
  39 H39           -2.1136    -5.1474     1.8077 H       
  40 H40           -1.9488    -6.7997    -1.1174 H       
  41 H41           -2.0628    -9.2574    -1.0191 H       
  42 H42           -0.7416   -10.4850     0.6575 H       
  43 H43            0.6938    -9.2549     2.2353 H       
  44 H44            0.8066    -6.7971     2.1379 H       
  45 H45           -0.6528    -4.8153    -0.5865 H       
  46 H46            0.4938    -4.8139     0.7749 H       
@<TRIPOS>BOND
   1    1    2 1
   2    1   11 1
   3    2    3 1
   4    2    4 1
   5    3   10 1
   6    4    5 ar
   7    4    6 ar
   8    5    9 ar
   9    5   24 1
  10    6    7 ar
  11    6   25 1
  12    7    8 ar
  13    7   26 1
  14    8    9 ar
  15    9   16 1
  16   10   11 1
  17   10   14 1
  18   10   15 1
  19   11   12 1
  20   11   13 1
  21   12   27 1
  22   12   28 1
  23   12   29 1
  24   13   30 1
  25   13   31 1
  26   13   32 1
  27   14   33 1
  28   14   34 1
  29   14   35 1
  30   15   36 1
  31   15   37 1
  32   15   38 1
  33   16   23 1
  34   16   39 1
  35   17   18 ar
  36   17   22 ar
  37   17   23 1
  38   18   19 ar
  39   18   40 1
  40   19   20 ar
  41   19   41 1
  42   20   21 ar
  43   20   42 1
  44   21   22 ar
  45   21   43 1
  46   22   44 1
  47   23   45 1
  48   23   46 1

#	End of record

