#	Name: ASD01883392
#	Creating user name:	WinNT
#	Creation time:	15. 06. 2019 19:46

#	Modifying user name:	WinNT
#	Modification time:	15. 06. 2019 19:46

#	Program:	/corina/corina34_cracker 3.40 0067  02.08.2006

@<TRIPOS>MOLECULE
ASD01883392
  51   54    0    0    0
SMALL
NO_CHARGES


@<TRIPOS>ATOM
   1 N1            -0.2361     1.7221     0.0246 N.am    
   2 C2            -0.9092     1.5973     1.1834 C.2     
   3 C3            -2.0923     0.8226     1.2322 C.2     
   4 C4            -2.5382     0.1969     0.0558 C.2     
   5 C5            -1.7910     0.3650    -1.1247 C.2     
   6 C6            -0.6713     1.1207    -1.1131 C.2     
   7 O7            -0.4999     2.1507     2.1900 O.2     
   8 C8            -2.8206     0.6788     2.4567 C.1     
   9 N9            -3.3984     0.5646     3.4281 N.1     
  10 C10            0.9871     2.5275    -0.0119 C.3     
  11 N11           -3.6839    -0.5664     0.0582 N.pl3   
  12 C12            2.1924     1.6390     0.3023 C.3     
  13 C13            3.5820     2.2708     0.1983 C.3     
  14 C14            2.9880     1.9505     1.5714 C.3     
  15 C15           -4.9963     0.0427     0.3225 C.3     
  16 C16           -5.9602    -0.3744    -0.7934 C.3     
  17 N17           -5.9669    -1.8389    -0.9082 N.3     
  18 C18           -4.6458    -2.3489    -1.2987 C.3     
  19 C19           -3.6288    -2.0116    -0.2095 C.3     
  20 C20           -7.3701     0.1181    -0.4608 C.3     
  21 C21           -4.7176    -3.8664    -1.4804 C.3     
  22 C22           -6.9434    -2.2626    -1.7928 C.ar    
  23 N23           -7.9398    -3.0127    -1.3455 N.ar    
  24 C24           -8.8892    -3.4343    -2.1644 C.ar    
  25 C25           -8.8322    -3.0822    -3.5038 C.ar    
  26 C26           -7.7762    -2.2965    -3.9381 C.ar    
  27 N27           -6.8626    -1.9040    -3.0657 N.ar    
  28 H28           -2.1146    -0.1069    -2.0406 H       
  29 H29           -0.1060     1.2426    -2.0253 H       
  30 H30            1.1057     2.9633    -1.0039 H       
  31 H31            0.9199     3.3240     0.7292 H       
  32 H32            2.0926     0.5924     0.0146 H       
  33 H33            4.3964     1.6396    -0.1574 H       
  34 H34            3.6375     3.3194    -0.0939 H       
  35 H35            2.6528     2.7885     2.1826 H       
  36 H36            3.4117     1.1088     2.1192 H       
  37 H37           -5.3752    -0.3063     1.2831 H       
  38 H38           -4.9000     1.1283     0.3363 H       
  39 H39           -5.6349     0.0629    -1.7373 H       
  40 H40           -4.3388    -1.8841    -2.2356 H       
  41 H41           -2.6285    -2.2855    -0.5451 H       
  42 H42           -3.8742    -2.5565     0.7021 H       
  43 H43           -7.3455     1.1919    -0.2756 H       
  44 H44           -8.0350    -0.0909    -1.2988 H       
  45 H45           -7.7340    -0.3959     0.4288 H       
  46 H46           -5.3682    -4.1010    -2.3229 H       
  47 H47           -3.7184    -4.2569    -1.6732 H       
  48 H48           -5.1174    -4.3223    -0.5747 H       
  49 H49           -9.6986    -4.0458    -1.7940 H       
  50 H50           -9.5941    -3.4131    -4.1941 H       
  51 H51           -7.7023    -2.0049    -4.9753 H       
@<TRIPOS>BOND
   1    1    2 am
   2    1   10 1
   3    1    6 1
   4    2    3 1
   5    2    7 2
   6    3    4 2
   7    3    8 1
   8    4    5 1
   9    4   11 1
  10    5    6 2
  11    5   28 1
  12    6   29 1
  13    8    9 3
  14   10   12 1
  15   10   30 1
  16   10   31 1
  17   11   15 1
  18   11   19 1
  19   12   13 1
  20   12   14 1
  21   12   32 1
  22   13   14 1
  23   13   33 1
  24   13   34 1
  25   14   35 1
  26   14   36 1
  27   15   16 1
  28   15   37 1
  29   15   38 1
  30   16   17 1
  31   16   20 1
  32   16   39 1
  33   17   18 1
  34   17   22 1
  35   18   19 1
  36   18   21 1
  37   18   40 1
  38   19   41 1
  39   19   42 1
  40   20   43 1
  41   20   44 1
  42   20   45 1
  43   21   46 1
  44   21   47 1
  45   21   48 1
  46   22   23 ar
  47   22   27 ar
  48   23   24 ar
  49   24   25 ar
  50   24   49 1
  51   25   26 ar
  52   25   50 1
  53   26   27 ar
  54   26   51 1

#	End of record

