#	Name: ASD01410967
#	Creating user name:	WinNT
#	Creation time:	15. 06. 2019 19:19

#	Modifying user name:	WinNT
#	Modification time:	15. 06. 2019 19:19

#	Program:	/corina/corina34_cracker 3.40 0067  02.08.2006

@<TRIPOS>MOLECULE
ASD01410967
  54   56    0    0    0
SMALL
NO_CHARGES


@<TRIPOS>ATOM
   1 C1            -0.0131     1.8100     0.0043 C.ar    
   2 P2             0.0239    -0.0035    -0.0159 P.3     
   3 N3             0.1802    -0.5642     1.5174 N.pl3   
   4 O4            -1.2344    -0.5162    -0.6027 O.2     
   5 C5             0.2320    -1.9348     1.7554 C.2     
   6 C6             0.3621    -2.4682     3.0170 C.2     
   7 S7             0.3895    -4.2232     2.9154 S.3     
   8 C8             0.2234    -4.1642     1.1665 C.2     
   9 C9             0.1514    -2.8698     0.7497 C.2     
  10 C10            0.4589    -1.7205     4.2107 C.2     
  11 O11            0.4295    -0.5040     4.1711 O.2     
  12 O12            0.5840    -2.3545     5.3962 O.3     
  13 C13            0.1647    -5.3451     0.2798 C.ar    
  14 C14            0.2421    -6.6306     0.8188 C.ar    
  15 C15            0.1869    -7.7288    -0.0138 C.ar    
  16 C16            0.0553    -7.5582    -1.3818 C.ar    
  17 C17           -0.0215    -6.2856    -1.9223 C.ar    
  18 C18            0.0260    -5.1797    -1.0994 C.ar    
  19 O19            1.2720    -0.5051    -0.9005 O.3     
  20 C20            1.4258    -0.1810    -2.2838 C.3     
  21 Cl21          -0.0129    -8.9454    -2.4233 Cl      
  22 C22           -1.2240     2.4769    -0.0118 C.ar    
  23 C23           -1.2522     3.8587     0.0035 C.ar    
  24 C24           -0.0694     4.5739     0.0353 C.ar    
  25 C25            1.1411     3.9072     0.0522 C.ar    
  26 C26            1.1692     2.5249     0.0414 C.ar    
  27 C27            2.4890     1.7978     0.0652 C.3     
  28 C28           -0.1001     6.0805     0.0510 C.3     
  29 C29            2.7133    -0.8136    -2.8158 C.3     
  30 O30            2.5981    -2.2373    -2.7716 O.3     
  31 C31            3.7536    -2.9290    -3.2494 C.3     
  32 H32            0.2366     0.0592     2.2584 H       
  33 H33            0.0431    -2.5983    -0.2900 H       
  34 H34            0.6431    -1.7595     6.1561 H       
  35 H35            0.3454    -6.7648     1.8854 H       
  36 H36            0.2466    -8.7238     0.4020 H       
  37 H37           -0.1236    -6.1588    -2.9900 H       
  38 H38           -0.0392    -4.1878    -1.5215 H       
  39 H39            0.5735    -0.5657    -2.8440 H       
  40 H40            1.4780     0.9016    -2.3997 H       
  41 H41           -2.1480     1.9182    -0.0366 H       
  42 H42           -2.1981     4.3797    -0.0097 H       
  43 H43            2.0650     4.4659     0.0767 H       
  44 H44            2.7861     1.5507    -0.9540 H       
  45 H45            3.2469     2.4355     0.5201 H       
  46 H46            2.3885     0.8814     0.6466 H       
  47 H47           -0.1284     6.4326     1.0821 H       
  48 H48            0.7925     6.4672    -0.4407 H       
  49 H49           -0.9867     6.4314    -0.4772 H       
  50 H50            2.8768    -0.4941    -3.8450 H       
  51 H51            3.5549    -0.4979    -2.1993 H       
  52 H52            3.9387    -2.6534    -4.2876 H       
  53 H53            4.6168    -2.6572    -2.6419 H       
  54 H54            3.5868    -4.0041    -3.1831 H       
@<TRIPOS>BOND
   1    1    2 1
   2    1   22 ar
   3    1   26 ar
   4    2    3 1
   5    2    4 2
   6    2   19 1
   7    3    5 1
   8    3   32 1
   9    5    6 2
  10    5    9 1
  11    6    7 1
  12    6   10 1
  13    7    8 1
  14    8    9 2
  15    8   13 1
  16    9   33 1
  17   10   11 2
  18   10   12 1
  19   12   34 1
  20   13   14 ar
  21   13   18 ar
  22   14   15 ar
  23   14   35 1
  24   15   16 ar
  25   15   36 1
  26   16   17 ar
  27   16   21 1
  28   17   18 ar
  29   17   37 1
  30   18   38 1
  31   19   20 1
  32   20   29 1
  33   20   39 1
  34   20   40 1
  35   22   23 ar
  36   22   41 1
  37   23   24 ar
  38   23   42 1
  39   24   25 ar
  40   24   28 1
  41   25   26 ar
  42   25   43 1
  43   26   27 1
  44   27   44 1
  45   27   45 1
  46   27   46 1
  47   28   47 1
  48   28   48 1
  49   28   49 1
  50   29   30 1
  51   29   50 1
  52   29   51 1
  53   30   31 1
  54   31   52 1
  55   31   53 1
  56   31   54 1

#	End of record

