#	Name: ASD05430280
#	Creating user name:	WinNT
#	Creation time:	15. 06. 2019 21:00

#	Modifying user name:	WinNT
#	Modification time:	15. 06. 2019 21:00

#	Program:	/corina/corina34_cracker 3.40 0067  02.08.2006

@<TRIPOS>MOLECULE
ASD05430280
  75   80    0    0    0
SMALL
NO_CHARGES


@<TRIPOS>ATOM
   1 C1            -0.1714     1.2083     0.9657 C.ar    
   2 C2            -0.0148    -0.0170     0.3186 C.ar    
   3 C3            -1.0636    -0.5586    -0.4135 C.ar    
   4 C4            -2.2638     0.1120    -0.5035 C.ar    
   5 C5            -2.4283     1.3412     0.1433 C.ar    
   6 C6            -1.3744     1.8838     0.8845 C.ar    
   7 C7            -4.9316    -0.1417     0.1101 C.3     
   8 C8            -4.8619     1.3704    -0.0474 C.2     
   9 C9            -3.7098     2.0594     0.0479 C.2     
  10 C10           -6.0996    -0.4800     1.0337 C.3     
  11 C11           -7.4571     0.0357     0.5699 C.3     
  12 N12           -7.3542     1.4048     0.0845 N.pl3   
  13 C13           -6.1647     2.0221    -0.3144 C.2     
  14 N14           -6.4065     3.1415    -0.9062 N.2     
  15 C15           -8.7360     3.0591     1.2392 C.ar    
  16 C16           -9.2781     4.3307     1.2691 C.ar    
  17 C17           -8.5019     2.3784     2.4192 C.ar    
  18 C18           -8.8095     2.9685     3.6307 C.ar    
  19 C19           -9.3522     4.2417     3.6619 C.ar    
  20 C20           -9.5864     4.9226     2.4790 C.ar    
  21 N21            1.2039    -0.7034     0.4067 N.pl3   
  22 C22            2.4392    -0.1884     0.1748 C.2     
  23 C23            1.3748    -2.0198     0.7492 C.2     
  24 C24            2.6986    -2.2643     0.7099 C.2     
  25 N25            3.3235    -1.1311     0.3573 N.2     
  26 C26            3.3632    -3.5821     1.0142 C.3     
  27 O27            0.8575     1.7357     1.6810 O.3     
  28 C28           -8.4061     2.4122    -0.0813 C.3     
  29 O29           -7.8078     3.3682    -0.9816 O.3     
  30 C30           -9.6575     1.7891    -0.7031 C.3     
  31 C31            0.6270     2.9940     2.3178 C.3     
  32 C32           -6.1246    -1.9580     1.4590 C.3     
  33 O33           -6.4080    -1.4542     2.7802 O.3     
  34 C34           -5.8074    -0.1708     2.5123 C.3     
  35 O35          -10.6646     2.7917    -0.8530 O.3     
  36 F36           -9.6536     4.8193     4.8455 F       
  37 Si37         -10.3181     6.6408     2.5191 Si      
  38 C38           -8.9462     7.8981     2.6076 C.3     
  39 C39          -11.3218     6.9245     0.9754 C.3     
  40 C40          -11.4161     6.8135     4.0142 C.3     
  41 H41           -0.9378    -1.5075    -0.9137 H       
  42 H42           -3.0775    -0.3113    -1.0737 H       
  43 H43           -1.4973     2.8325     1.3858 H       
  44 H44           -5.0893    -0.6043    -0.8642 H       
  45 H45           -4.0021    -0.5076     0.5461 H       
  46 H46           -3.7254     3.1393     0.0543 H       
  47 H47           -7.8276    -0.6022    -0.2326 H       
  48 H48           -8.1571     0.0030     1.4047 H       
  49 H49           -9.4603     4.8616     0.3465 H       
  50 H50           -8.0788     1.3851     2.3946 H       
  51 H51           -8.6268     2.4364     4.5526 H       
  52 H52            2.6539     0.8302    -0.1128 H       
  53 H53            0.5972    -2.7252     1.0025 H       
  54 H54            3.4446    -4.1680     0.0987 H       
  55 H55            4.3587    -3.4019     1.4199 H       
  56 H56            2.7670    -4.1297     1.7442 H       
  57 H57           -9.4096     1.3741    -1.6801 H       
  58 H58          -10.0286     0.9953    -0.0548 H       
  59 H59            1.5257     3.3003     2.8532 H       
  60 H60            0.3799     3.7424     1.5648 H       
  61 H61           -0.2004     2.8992     3.0210 H       
  62 H62           -6.9423    -2.5296     1.0200 H       
  63 H63           -5.1595    -2.4577     1.3750 H       
  64 H64           -4.7451    -0.1222     2.7513 H       
  65 H65           -6.3741     0.6726     2.9070 H       
  66 H66          -11.4880     2.4669    -1.2423 H       
  67 H67           -8.3037     7.7971     1.7328 H       
  68 H68           -9.3731     8.9008     2.6309 H       
  69 H69           -8.3589     7.7322     3.5107 H       
  70 H70          -12.1244     6.1889     0.9236 H       
  71 H71          -11.7487     7.9271     0.9988 H       
  72 H72          -10.6794     6.8235     0.1007 H       
  73 H73          -10.8288     6.6476     4.9174 H       
  74 H74          -11.8430     7.8162     4.0376 H       
  75 H75          -12.2188     6.0779     3.9624 H       
@<TRIPOS>BOND
   1    1    2 ar
   2    1   27 1
   3    1    6 ar
   4    2    3 ar
   5    2   21 1
   6    3    4 ar
   7    3   41 1
   8    4    5 ar
   9    4   42 1
  10    5    6 ar
  11    5    9 1
  12    6   43 1
  13    7    8 1
  14    7   10 1
  15    7   44 1
  16    7   45 1
  17    8    9 2
  18    8   13 1
  19    9   46 1
  20   10   11 1
  21   10   32 1
  22   10   34 1
  23   11   12 1
  24   11   47 1
  25   11   48 1
  26   12   13 1
  27   12   28 1
  28   13   14 2
  29   14   29 1
  30   15   16 ar
  31   15   17 ar
  32   15   28 1
  33   16   20 ar
  34   16   49 1
  35   17   18 ar
  36   17   50 1
  37   18   19 ar
  38   18   51 1
  39   19   20 ar
  40   19   36 1
  41   20   37 1
  42   21   22 1
  43   21   23 1
  44   22   25 2
  45   22   52 1
  46   23   24 2
  47   23   53 1
  48   24   25 1
  49   24   26 1
  50   26   54 1
  51   26   55 1
  52   26   56 1
  53   27   31 1
  54   28   29 1
  55   28   30 1
  56   30   35 1
  57   30   57 1
  58   30   58 1
  59   31   59 1
  60   31   60 1
  61   31   61 1
  62   32   33 1
  63   32   62 1
  64   32   63 1
  65   33   34 1
  66   34   64 1
  67   34   65 1
  68   35   66 1
  69   37   38 1
  70   37   39 1
  71   37   40 1
  72   38   67 1
  73   38   68 1
  74   38   69 1
  75   39   70 1
  76   39   71 1
  77   39   72 1
  78   40   73 1
  79   40   74 1
  80   40   75 1

#	End of record

