#	Name: ASD00700002
#	Creating user name:	WinNT
#	Creation time:	15. 06. 2019 18:37

#	Modifying user name:	WinNT
#	Modification time:	15. 06. 2019 18:37

#	Program:	/corina/corina34_cracker 3.40 0067  02.08.2006

@<TRIPOS>MOLECULE
ASD00700002
  47   51    0    0    0
SMALL
NO_CHARGES


@<TRIPOS>ATOM
   1 C1             0.0914     1.2054     0.5189 C.ar    
   2 C2             0.1851    -0.1656     0.6783 C.ar    
   3 C3             1.4174    -0.7844     0.6593 C.ar    
   4 C4             2.5760    -0.0272     0.4794 C.ar    
   5 C5             2.4721     1.3536     0.3185 C.ar    
   6 C6             1.2350     1.9628     0.3393 C.ar    
   7 C7             4.0052    -0.4250     0.4219 C.ar    
   8 C8             4.6161    -1.6751     0.5320 C.ar    
   9 C9             5.9882    -1.7826     0.4429 C.ar    
  10 C10            6.7635    -0.6543     0.2440 C.ar    
  11 C11            6.1655     0.5880     0.1332 C.ar    
  12 C12            4.7943     0.7067     0.2216 C.ar    
  13 C13            3.8666     1.8859     0.1454 C.3     
  14 C14            4.0173     2.6350    -1.1778 C.3     
  15 C15            4.1960     2.9132     1.1996 C.2     
  16 C16            4.3828     4.1078     0.5809 C.2     
  17 C17            2.3775     3.6710    -2.6703 C.2     
  18 C18            2.7504     2.5796    -1.9961 C.2     
  19 N19            4.1833     4.0463    -0.7614 N.pl3   
  20 N20            4.0516     5.0972    -1.6888 N.2     
  21 C21            3.1675     4.9046    -2.6396 C.2     
  22 C22            4.2962     2.6663     2.6364 C.2     
  23 C23            4.7635     5.3487     1.2956 C.2     
  24 O24            4.8093     5.3608     2.5086 O.2     
  25 O25            5.0588     6.4632     0.5994 O.3     
  26 O26            4.6859     3.5472     3.3791 O.2     
  27 O27            3.9563     1.4611     3.1392 O.3     
  28 C28            4.0789     1.2898     4.5526 C.3     
  29 C29            5.4234     7.6417     1.3652 C.3     
  30 H30           -0.8763     1.6847     0.5304 H       
  31 H31           -0.7101    -0.7534     0.8183 H       
  32 H32            1.4860    -1.8550     0.7841 H       
  33 H33            1.1589     3.0330     0.2155 H       
  34 H34            4.0143    -2.5583     0.6874 H       
  35 H35            6.4589    -2.7508     0.5291 H       
  36 H36            7.8376    -0.7435     0.1754 H       
  37 H37            6.7735     1.4669    -0.0228 H       
  38 H38            4.8817     2.2800    -1.7390 H       
  39 H39            1.4692     3.6432    -3.2539 H       
  40 H40            2.1583     1.6773    -2.0360 H       
  41 H41            3.0223     5.6567    -3.4009 H       
  42 H42            5.1155     1.4492     4.8493 H       
  43 H43            3.4399     2.0106     5.0626 H       
  44 H44            3.7746     0.2788     4.8238 H       
  45 H45            4.5990     7.9170     2.0229 H       
  46 H46            6.3090     7.4267     1.9632 H       
  47 H47            5.6360     8.4660     0.6845 H       
@<TRIPOS>BOND
   1    1    2 ar
   2    1    6 ar
   3    1   30 1
   4    2    3 ar
   5    2   31 1
   6    3    4 ar
   7    3   32 1
   8    4    5 ar
   9    4    7 1
  10    5    6 ar
  11    5   13 1
  12    6   33 1
  13    7    8 ar
  14    7   12 ar
  15    8    9 ar
  16    8   34 1
  17    9   10 ar
  18    9   35 1
  19   10   11 ar
  20   10   36 1
  21   11   12 ar
  22   11   37 1
  23   12   13 1
  24   13   14 1
  25   13   15 1
  26   14   19 1
  27   14   18 1
  28   14   38 1
  29   15   16 2
  30   15   22 1
  31   16   19 1
  32   16   23 1
  33   17   18 2
  34   17   21 1
  35   17   39 1
  36   18   40 1
  37   19   20 1
  38   20   21 2
  39   21   41 1
  40   22   26 2
  41   22   27 1
  42   23   24 2
  43   23   25 1
  44   25   29 1
  45   27   28 1
  46   28   42 1
  47   28   43 1
  48   28   44 1
  49   29   45 1
  50   29   46 1
  51   29   47 1

#	End of record

