#	Name: ASD05130058
#	Creating user name:	WinNT
#	Creation time:	15. 06. 2019 20:56

#	Modifying user name:	WinNT
#	Modification time:	15. 06. 2019 20:56

#	Program:	/corina/corina34_cracker 3.40 0067  02.08.2006

@<TRIPOS>MOLECULE
ASD05130058
  61   64    0    0    0
SMALL
NO_CHARGES


@<TRIPOS>ATOM
   1 N1            -0.1627     1.5513     0.1042 N.am    
   2 C2             0.0509     0.4239     0.8111 C.2     
   3 O3             1.1184     0.2472     1.3658 O.2     
   4 N4            -0.9187    -0.5077     0.9031 N.am    
   5 C5            -0.6618    -1.7245     1.5471 C.ar    
   6 C6            -1.6720    -2.3644     2.2528 C.ar    
   7 C7            -1.4166    -3.5643     2.8872 C.ar    
   8 C8            -0.1541    -4.1290     2.8203 C.ar    
   9 C9             0.8548    -3.4923     2.1174 C.ar    
  10 C10            0.6018    -2.2955     1.4760 C.ar    
  11 F11            0.0938    -5.3026     3.4420 F       
  12 C12            0.8107     2.5591     0.0815 C.ar    
  13 C13            0.4331     3.8875    -0.0905 C.ar    
  14 C14            1.3912     4.8855    -0.1130 C.ar    
  15 C15            2.7278     4.5682     0.0352 C.ar    
  16 C16            3.1141     3.2385     0.2081 C.ar    
  17 C17            2.1482     2.2337     0.2361 C.ar    
  18 F18           -0.8724     4.2035    -0.2364 F       
  19 N19            6.5376     2.8584     1.7759 N.am    
  20 C20            5.2347     3.1699     1.6306 C.2     
  21 C21            4.5469     2.8960     0.3668 C.2     
  22 C22            5.2360     2.3214    -0.6662 C.2     
  23 C23            6.6035     2.0035    -0.4890 C.ar    
  24 C24            7.3473     1.4151    -1.5193 C.ar    
  25 N25            8.6175     1.1263    -1.3384 N.ar    
  26 C26            9.2438     1.3738    -0.1928 C.ar    
  27 C27            8.5818     1.9549     0.8795 C.ar    
  28 C28            7.2375     2.2804     0.7420 C.ar    
  29 O29            4.6264     3.6810     2.5540 O.2     
  30 N30           10.5854     1.0445    -0.0662 N.pl3   
  31 C31           11.2897     1.3112     1.1904 C.3     
  32 C32           12.7454     0.8570     1.0656 C.3     
  33 O33           13.4103     1.6537     0.0831 O.3     
  34 C34           14.7834     1.3094    -0.1122 C.3     
  35 C35            7.2158     3.1429     3.0429 C.3     
  36 C36            7.0849     1.9357     3.9737 C.3     
  37 Cl37           3.9264     5.8236     0.0058 Cl      
  38 H38           -0.9885     1.6635    -0.3921 H       
  39 H39           -1.7944    -0.3354     0.5233 H       
  40 H40           -2.6567    -1.9239     2.3058 H       
  41 H41           -2.2021    -4.0623     3.4362 H       
  42 H42            1.8390    -3.9341     2.0667 H       
  43 H43            1.3875    -1.8018     0.9236 H       
  44 H44            1.0937     5.9150    -0.2471 H       
  45 H45            2.4423     1.2037     0.3741 H       
  46 H46            4.7428     2.1130    -1.6041 H       
  47 H47            6.8758     1.1972    -2.4662 H       
  48 H48            9.1024     2.1512     1.8051 H       
  49 H49           11.0572     0.6377    -0.8097 H       
  50 H50           11.2595     2.3796     1.4042 H       
  51 H51           10.8068     0.7647     2.0006 H       
  52 H52           13.2459     0.9730     2.0269 H       
  53 H53           12.7747    -0.1902     0.7646 H       
  54 H54           15.2163     1.9593    -0.8727 H       
  55 H55           15.3262     1.4348     0.8247 H       
  56 H56           14.8550     0.2716    -0.4375 H       
  57 H57            8.2704     3.3431     2.8536 H       
  58 H58            6.7590     4.0144     3.5118 H       
  59 H59            7.5417     1.0641     3.5048 H       
  60 H60            7.5895     2.1474     4.9164 H       
  61 H61            6.0303     1.7355     4.1631 H       
@<TRIPOS>BOND
   1    1    2 am
   2    1   12 1
   3    1   38 1
   4    2    3 2
   5    2    4 am
   6    4    5 1
   7    4   39 1
   8    5    6 ar
   9    5   10 ar
  10    6    7 ar
  11    6   40 1
  12    7    8 ar
  13    7   41 1
  14    8    9 ar
  15    8   11 1
  16    9   10 ar
  17    9   42 1
  18   10   43 1
  19   12   13 ar
  20   12   17 ar
  21   13   14 ar
  22   13   18 1
  23   14   15 ar
  24   14   44 1
  25   15   16 ar
  26   15   37 1
  27   16   17 ar
  28   16   21 1
  29   17   45 1
  30   19   20 am
  31   19   28 1
  32   19   35 1
  33   20   21 1
  34   20   29 2
  35   21   22 2
  36   22   23 1
  37   22   46 1
  38   23   24 ar
  39   23   28 ar
  40   24   25 ar
  41   24   47 1
  42   25   26 ar
  43   26   27 ar
  44   26   30 1
  45   27   28 ar
  46   27   48 1
  47   30   31 1
  48   30   49 1
  49   31   32 1
  50   31   50 1
  51   31   51 1
  52   32   33 1
  53   32   52 1
  54   32   53 1
  55   33   34 1
  56   34   54 1
  57   34   55 1
  58   34   56 1
  59   35   36 1
  60   35   57 1
  61   35   58 1
  62   36   59 1
  63   36   60 1
  64   36   61 1

#	End of record

