#	Name: ASD01880418
#	Creating user name:	WinNT
#	Creation time:	15. 06. 2019 19:40

#	Modifying user name:	WinNT
#	Modification time:	15. 06. 2019 19:40

#	Program:	/corina/corina34_cracker 3.40 0067  02.08.2006

@<TRIPOS>MOLECULE
ASD01880418
  21   20    0    0    0
SMALL
NO_CHARGES


@<TRIPOS>ATOM
   1 O1            -0.0161     1.3381     0.0094 O.3     
   2 C2             0.0021    -0.0041     0.0020 C.2     
   3 O3             1.0565    -0.5939    -0.0112 O.2     
   4 C4            -1.2926    -0.7753     0.0102 C.3     
   5 C5            -1.8725    -0.8134    -1.4051 C.3     
   6 C6            -3.2459    -1.4872    -1.3756 C.3     
   7 P7            -3.9368    -1.5326    -3.0620 P.3     
   8 O8            -2.9746    -2.1937    -3.9717 O.2     
   9 O9            -5.3200    -2.3565    -3.0532 O.3     
  10 O10           -4.2105    -0.0298    -3.5705 O.3     
  11 N11           -1.0429    -2.1465     0.4742 N.3     
  12 H12            0.8394     1.7888     0.0037 H       
  13 H13           -2.0013    -0.2884     0.6802 H       
  14 H14           -1.9749     0.2037    -1.7833 H       
  15 H15           -1.2049    -1.3777    -2.0562 H       
  16 H16           -3.1435    -2.5043    -0.9973 H       
  17 H17           -3.9135    -0.9229    -0.7245 H       
  18 H18           -5.7447    -2.4213    -3.9195 H       
  19 H19           -4.8335     0.4643    -3.0201 H       
  20 H20           -1.9050    -2.6652     0.5502 H       
  21 H21           -0.3884    -2.6194    -0.1309 H       
@<TRIPOS>BOND
   1    1    2 1
   2    1   12 1
   3    2    3 2
   4    2    4 1
   5    4    5 1
   6    4   11 1
   7    4   13 1
   8    5    6 1
   9    5   14 1
  10    5   15 1
  11    6    7 1
  12    6   16 1
  13    6   17 1
  14    7    8 2
  15    7    9 1
  16    7   10 1
  17    9   18 1
  18   10   19 1
  19   11   20 1
  20   11   21 1

#	End of record

