#	Name: ASD08150701
#	Creating user name:	WinNT
#	Creation time:	15. 06. 2019 21:16

#	Modifying user name:	WinNT
#	Modification time:	15. 06. 2019 21:16

#	Program:	/corina/corina34_cracker 3.40 0067  02.08.2006

@<TRIPOS>MOLECULE
ASD08150701
  49   53    0    0    0
SMALL
NO_CHARGES


@<TRIPOS>ATOM
   1 C1            -0.0173     1.3310     0.1134 C.2     
   2 N2            -0.0004     0.0024     0.2055 N.2     
   3 C3             1.1342    -0.6708     0.2919 C.2     
   4 C4             2.3480     0.0105     0.2880 C.2     
   5 C5             2.3338     1.4168     0.1907 C.2     
   6 N6             1.1452     2.0520     0.1044 N.am    
   7 C7            -1.2508     2.0012     0.0181 C.2     
   8 C8            -1.2700     3.3605    -0.0763 C.2     
   9 C9            -0.0615     4.0715    -0.0771 C.2     
  10 C10            1.1147     3.4110     0.0084 C.2     
  11 O11            3.3776     2.0493     0.1844 O.2     
  12 N12            5.5548    -1.4814     1.1139 N.pl3   
  13 N13            5.2940    -2.0744    -0.1274 N.2     
  14 C14            4.1470    -1.6291    -0.5679 C.2     
  15 C15            3.6312    -0.7287     0.3847 C.2     
  16 C16            4.5259    -0.6597     1.4128 C.2     
  17 C17            1.1133    -2.1742     0.3952 C.3     
  18 C18            0.4512    -2.5858     1.7116 C.3     
  19 C19            0.5412    -4.1044     1.8748 C.3     
  20 N20            0.3545    -2.7303    -0.7279 N.pl3   
  21 N21           -1.0961    -4.1222    -3.0536 N.2     
  22 C22           -1.4123    -5.0559    -3.9031 C.2     
  23 N23           -0.6505    -6.1645    -3.6816 N.pl3   
  24 C24            0.1835    -5.8867    -2.6283 C.ar    
  25 N25            1.1257    -6.5585    -1.9747 N.ar    
  26 C26            1.7733    -6.0024    -0.9725 C.ar    
  27 N27            1.5281    -4.7700    -0.5668 N.ar    
  28 C28            0.6039    -4.0212    -1.1597 C.ar    
  29 C29           -0.1142    -4.5708    -2.2352 C.ar    
  30 C30            2.4069     4.1864    -0.0007 C.3     
  31 H31           -2.1751     1.4427     0.0194 H       
  32 H32           -2.2102     3.8868    -0.1503 H       
  33 H33           -0.0702     5.1489    -0.1520 H       
  34 H34            6.3372    -1.6372     1.6656 H       
  35 H35            3.6764    -1.9035    -1.5005 H       
  36 H36            4.4287    -0.0571     2.3038 H       
  37 H37            2.1344    -2.5545     0.3676 H       
  38 H38            0.9623    -2.1001     2.5429 H       
  39 H39           -0.5958    -2.2828     1.7021 H       
  40 H40            0.0695    -4.3976     2.8127 H       
  41 H41            0.0300    -4.5901     1.0436 H       
  42 H42            1.5882    -4.4074     1.8844 H       
  43 H43           -0.3226    -2.1937    -1.1688 H       
  44 H44           -2.1672    -4.9660    -4.6702 H       
  45 H45           -0.6910    -6.9972    -4.1775 H       
  46 H46            2.5332    -6.5760    -0.4626 H       
  47 H47            3.0136     3.8716    -0.8498 H       
  48 H48            2.1909     5.2516    -0.0835 H       
  49 H49            2.9509     3.9968     0.9246 H       
@<TRIPOS>BOND
   1    1    2 2
   2    1    6 1
   3    1    7 1
   4    2    3 1
   5    3    4 2
   6    3   17 1
   7    4    5 1
   8    4   15 1
   9    5    6 am
  10    5   11 2
  11    6   10 1
  12    7    8 2
  13    7   31 1
  14    8    9 1
  15    8   32 1
  16    9   10 2
  17    9   33 1
  18   10   30 1
  19   12   13 1
  20   12   16 1
  21   12   34 1
  22   13   14 2
  23   14   15 1
  24   14   35 1
  25   15   16 2
  26   16   36 1
  27   17   18 1
  28   17   20 1
  29   17   37 1
  30   18   19 1
  31   18   38 1
  32   18   39 1
  33   19   40 1
  34   19   41 1
  35   19   42 1
  36   20   28 1
  37   20   43 1
  38   21   22 2
  39   21   29 1
  40   22   23 1
  41   22   44 1
  42   23   24 1
  43   23   45 1
  44   24   25 ar
  45   24   29 ar
  46   25   26 ar
  47   26   27 ar
  48   26   46 1
  49   27   28 ar
  50   28   29 ar
  51   30   47 1
  52   30   48 1
  53   30   49 1

#	End of record

