#	Name: ASD01940438
#	Creating user name:	WinNT
#	Creation time:	15. 06. 2019 20:12

#	Modifying user name:	WinNT
#	Modification time:	15. 06. 2019 20:12

#	Program:	/corina/corina34_cracker 3.40 0067  02.08.2006

@<TRIPOS>MOLECULE
ASD01940438
  39   41    0    0    0
SMALL
NO_CHARGES


@<TRIPOS>ATOM
   1 N1            -0.0169     1.3938     0.0097 N.pl3   
   2 N2             0.0021    -0.0041     0.0020 N.am    
   3 C3             1.4127    -0.4190    -0.0137 C.3     
   4 C4             2.1972     0.8718    -0.0142 C.ar    
   5 C5             3.5467     1.1364    -0.0257 C.ar    
   6 C6             3.9930     2.4642    -0.0228 C.ar    
   7 C7             3.0596     3.5060    -0.0083 C.ar    
   8 C8             1.7235     3.2325     0.0034 C.ar    
   9 C9             1.2712     1.9104     0.0002 C.ar    
  10 C10            5.4357     2.7614    -0.0345 C.2     
  11 O11            6.2431     1.8532    -0.0467 O.2     
  12 S12           -1.3171    -1.0052     0.0097 S.o2    
  13 O13           -2.3668    -0.2905    -0.6279 O.2     
  14 O14           -0.8596    -2.2751    -0.4345 O.2     
  15 C15           -2.5706    -1.5366     4.3268 C.ar    
  16 C16           -1.8050    -1.2120     1.6901 C.ar    
  17 C17           -3.1011    -0.5050     3.5750 C.ar    
  18 C18           -1.6573    -2.4060     3.7602 C.ar    
  19 C19           -2.7183    -0.3427     2.2567 C.ar    
  20 C20           -1.2745    -2.2437     2.4419 C.ar    
  21 C21           -2.9833    -1.7098     5.7658 C.3     
  22 Cl22           4.6914    -0.1686    -0.0431 Cl      
  23 O23            5.8602     4.0405    -0.0317 O.3     
  24 C24            7.2957     4.2587    -0.0438 C.3     
  25 H25           -0.8240     1.9317     0.0166 H       
  26 H26            1.6458    -1.0039     0.8761 H       
  27 H27            1.6287    -0.9943    -0.9139 H       
  28 H28            3.3985     4.5314    -0.0061 H       
  29 H29            1.0101     4.0434     0.0153 H       
  30 H30           -3.8149     0.1740     4.0176 H       
  31 H31           -1.2426    -3.2118     4.3477 H       
  32 H32           -3.1330     0.4631     1.6692 H       
  33 H33           -0.5613    -2.9231     1.9991 H       
  34 H34           -3.8542    -2.3631     5.8179 H       
  35 H35           -2.1620    -2.1537     6.3284 H       
  36 H36           -3.2321    -0.7379     6.1919 H       
  37 H37            7.7402     3.8006     0.8398 H       
  38 H38            7.7239     3.8099    -0.9401 H       
  39 H39            7.5005     5.3292    -0.0400 H       
@<TRIPOS>BOND
   1    1    2 1
   2    1    9 1
   3    1   25 1
   4    2    3 1
   5    2   12 am
   6    3    4 1
   7    3   26 1
   8    3   27 1
   9    4    5 ar
  10    4    9 ar
  11    5    6 ar
  12    5   22 1
  13    6    7 ar
  14    6   10 1
  15    7    8 ar
  16    7   28 1
  17    8    9 ar
  18    8   29 1
  19   10   11 2
  20   10   23 1
  21   12   13 2
  22   12   14 2
  23   12   16 1
  24   15   17 ar
  25   15   18 ar
  26   15   21 1
  27   16   19 ar
  28   16   20 ar
  29   17   19 ar
  30   17   30 1
  31   18   20 ar
  32   18   31 1
  33   19   32 1
  34   20   33 1
  35   21   34 1
  36   21   35 1
  37   21   36 1
  38   23   24 1
  39   24   37 1
  40   24   38 1
  41   24   39 1

#	End of record

