#	Name: ASD01884127
#	Creating user name:	WinNT
#	Creation time:	15. 06. 2019 19:47

#	Modifying user name:	WinNT
#	Modification time:	15. 06. 2019 19:47

#	Program:	/corina/corina34_cracker 3.40 0067  02.08.2006

@<TRIPOS>MOLECULE
ASD01884127
  54   57    0    0    0
SMALL
NO_CHARGES


@<TRIPOS>ATOM
   1 C1             0.0103     1.3105     0.1161 C.2     
   2 C2            -0.0249    -0.0410    -0.0954 C.2     
   3 C3            -1.2705    -0.6984    -0.1959 C.2     
   4 C4            -2.4177    -0.0007    -0.0848 C.2     
   5 N5            -2.3935     1.3472     0.1256 N.pl3   
   6 C6            -1.1988     2.0167     0.2350 C.2     
   7 N7            -1.4916     3.2930     0.4330 N.2     
   8 C8            -3.3648     2.2932     0.2747 C.2     
   9 N9            -2.7693     3.4432     0.4512 N.2     
  10 C10           -4.8526     2.0562     0.2393 C.3     
  11 N11            1.1592    -0.7628    -0.2111 N.pl3   
  12 C12            2.0635    -0.5403    -1.3476 C.3     
  13 C13            2.3434    -1.8851    -2.0257 C.3     
  14 C14            2.8724    -2.8758    -0.9861 C.3     
  15 C15            1.8150    -3.0927     0.0988 C.3     
  16 C16            1.5319    -1.7575     0.8039 C.3     
  17 C17            3.1810    -4.1899    -1.6563 C.ar    
  18 C18            4.4665    -4.6971    -1.6240 C.ar    
  19 C19            4.7496    -5.9024    -2.2388 C.ar    
  20 C20            3.7470    -6.6007    -2.8854 C.ar    
  21 C21            2.4613    -6.0939    -2.9169 C.ar    
  22 C22            2.1773    -4.8907    -2.2984 C.ar    
  23 C23           -5.3545     1.7530     1.6524 C.3     
  24 C24           -6.8651     1.5123     1.6164 C.3     
  25 C25           -7.3670     1.2091     3.0296 C.3     
  26 C26            1.3291     2.0315     0.2264 C.3     
  27 F27            1.7766     2.3831    -1.0517 F       
  28 F28            1.1656     3.1872     0.9976 F       
  29 F29            2.2692     1.1935     0.8355 F       
  30 H30           -1.3038    -1.7649    -0.3627 H       
  31 H31           -3.3652    -0.5129    -0.1635 H       
  32 H32           -5.3534     2.9465    -0.1410 H       
  33 H33           -5.0703     1.2104    -0.4129 H       
  34 H34            1.5945     0.1378    -2.0605 H       
  35 H35            2.9990    -0.1091    -0.9911 H       
  36 H36            1.4219    -2.2719    -2.4609 H       
  37 H37            3.0877    -1.7490    -2.8103 H       
  38 H38            3.7804    -2.4771    -0.5336 H       
  39 H39            0.8985    -3.4681    -0.3564 H       
  40 H40            2.1832    -3.8161     0.8263 H       
  41 H41            2.4249    -1.4284     1.3353 H       
  42 H42            0.7103    -1.8837     1.5091 H       
  43 H43            5.2498    -4.1515    -1.1188 H       
  44 H44            5.7541    -6.2984    -2.2142 H       
  45 H45            3.9683    -7.5421    -3.3663 H       
  46 H46            1.6781    -6.6393    -3.4224 H       
  47 H47            1.1728    -4.4948    -2.3230 H       
  48 H48           -4.8537     0.8626     2.0327 H       
  49 H49           -5.1368     2.5988     2.3046 H       
  50 H50           -7.3659     2.4027     1.2362 H       
  51 H51           -7.0828     0.6665     0.9643 H       
  52 H52           -6.8662     0.3188     3.4098 H       
  53 H53           -7.1493     2.0549     3.6818 H       
  54 H54           -8.4431     1.0377     3.0039 H       
@<TRIPOS>BOND
   1    1    2 2
   2    1   26 1
   3    1    6 1
   4    2    3 1
   5    2   11 1
   6    3    4 2
   7    3   30 1
   8    4    5 1
   9    4   31 1
  10    5    6 1
  11    5    8 1
  12    6    7 2
  13    7    9 1
  14    8    9 2
  15    8   10 1
  16   10   23 1
  17   10   32 1
  18   10   33 1
  19   11   12 1
  20   11   16 1
  21   12   13 1
  22   12   34 1
  23   12   35 1
  24   13   14 1
  25   13   36 1
  26   13   37 1
  27   14   15 1
  28   14   17 1
  29   14   38 1
  30   15   16 1
  31   15   39 1
  32   15   40 1
  33   16   41 1
  34   16   42 1
  35   17   18 ar
  36   17   22 ar
  37   18   19 ar
  38   18   43 1
  39   19   20 ar
  40   19   44 1
  41   20   21 ar
  42   20   45 1
  43   21   22 ar
  44   21   46 1
  45   22   47 1
  46   23   24 1
  47   23   48 1
  48   23   49 1
  49   24   25 1
  50   24   50 1
  51   24   51 1
  52   25   52 1
  53   25   53 1
  54   25   54 1
  55   26   27 1
  56   26   28 1
  57   26   29 1

#	End of record

