#	Name: ASD01816331
#	Creating user name:	WinNT
#	Creation time:	15. 06. 2019 19:35

#	Modifying user name:	WinNT
#	Modification time:	15. 06. 2019 19:35

#	Program:	/corina/corina34_cracker 3.40 0067  02.08.2006

@<TRIPOS>MOLECULE
ASD01816331
  56   62    0    0    0
SMALL
NO_CHARGES


@<TRIPOS>ATOM
   1 C1            -0.0167     1.3813     0.0096 C.ar    
   2 C2             0.0021    -0.0041     0.0020 C.ar    
   3 C3             1.1983    -0.6909    -0.0126 C.ar    
   4 C4             2.4015     0.0060    -0.0198 C.ar    
   5 C5             2.3790     1.4106    -0.0126 C.ar    
   6 C6             1.1663     2.0917     0.0022 C.ar    
   7 N7             3.6053    -0.6771    -0.0336 N.pl3   
   8 C8             4.7970    -0.0585    -0.0411 C.2     
   9 C9             4.8999     1.3104    -0.0351 C.2     
  10 C10            3.6670     2.1302    -0.0205 C.2     
  11 C11            5.9971     2.2731    -0.0401 C.2     
  12 N12            5.4245     3.4961    -0.0292 N.am    
  13 N13            4.0322     3.3799    -0.0177 N.2     
  14 O14            7.1911     2.0232    -0.0516 O.2     
  15 C15            3.5779    -2.1418    -0.0397 C.3     
  16 C16            3.5558    -2.6379    -1.4625 C.ar    
  17 C17            4.7437    -2.8874    -2.1248 C.ar    
  18 C18            4.7267    -3.3417    -3.4290 C.ar    
  19 C19            3.5152    -3.5482    -4.0749 C.ar    
  20 C20            2.3241    -3.2973    -3.4072 C.ar    
  21 C21            2.3475    -2.8481    -2.1013 C.ar    
  22 N22            3.4947    -4.0088    -5.3988 N.pl3   
  23 C23            2.3900    -4.2503    -6.1404 C.2     
  24 C24            2.7969    -4.6801    -7.3573 C.2     
  25 C25            4.1959    -4.7024    -7.3606 C.2     
  26 N26            4.6150    -4.2946    -6.1897 N.2     
  27 C27            6.1223     4.7015    -0.0291 C.ar    
  28 C28            5.4068     5.9059    -0.0172 C.ar    
  29 C29            6.0760     7.0935    -0.0166 C.ar    
  30 C30            7.4850     7.0656    -0.0281 C.ar    
  31 C31            8.1496     5.8146    -0.0398 C.ar    
  32 N32            7.4390     4.6819    -0.0348 N.ar    
  33 C33            8.2375     8.2505    -0.0286 C.ar    
  34 C34            9.5978     8.1845    -0.0403 C.ar    
  35 C35           10.2536     6.9554    -0.0517 C.ar    
  36 C36            9.5551     5.7872    -0.0512 C.ar    
  37 H37           -0.9602     1.9068     0.0169 H       
  38 H38           -0.9289    -0.5515     0.0079 H       
  39 H39            1.2003    -1.7709    -0.0181 H       
  40 H40            1.1506     3.1715     0.0074 H       
  41 H41            5.6983    -0.6535    -0.0517 H       
  42 H42            4.4655    -2.5240     0.4646 H       
  43 H43            2.6859    -2.4907     0.4806 H       
  44 H44            5.6858    -2.7265    -1.6218 H       
  45 H45            5.6549    -3.5357    -3.9460 H       
  46 H46            1.3802    -3.4567    -3.9072 H       
  47 H47            1.4213    -2.6527    -1.5814 H       
  48 H48            1.3668    -4.1235    -5.8190 H       
  49 H49            2.1551    -4.9570    -8.1806 H       
  50 H50            4.8222    -5.0004    -8.1885 H       
  51 H51            4.3269     5.8935    -0.0089 H       
  52 H52            5.5404     8.0312    -0.0078 H       
  53 H53            7.7405     9.2093    -0.0201 H       
  54 H54           10.1756     9.0969    -0.0410 H       
  55 H55           11.3332     6.9292    -0.0609 H       
  56 H56           10.0787     4.8426    -0.0602 H       
@<TRIPOS>BOND
   1    1    2 ar
   2    1    6 ar
   3    1   37 1
   4    2    3 ar
   5    2   38 1
   6    3    4 ar
   7    3   39 1
   8    4    5 ar
   9    4    7 1
  10    5    6 ar
  11    5   10 1
  12    6   40 1
  13    7    8 1
  14    7   15 1
  15    8    9 2
  16    8   41 1
  17    9   10 1
  18    9   11 1
  19   10   13 2
  20   11   12 am
  21   11   14 2
  22   12   13 1
  23   12   27 1
  24   15   16 1
  25   15   42 1
  26   15   43 1
  27   16   17 ar
  28   16   21 ar
  29   17   18 ar
  30   17   44 1
  31   18   19 ar
  32   18   45 1
  33   19   20 ar
  34   19   22 1
  35   20   21 ar
  36   20   46 1
  37   21   47 1
  38   22   23 1
  39   22   26 1
  40   23   24 2
  41   23   48 1
  42   24   25 1
  43   24   49 1
  44   25   26 2
  45   25   50 1
  46   27   28 ar
  47   27   32 ar
  48   28   29 ar
  49   28   51 1
  50   29   30 ar
  51   29   52 1
  52   30   31 ar
  53   30   33 ar
  54   31   32 ar
  55   31   36 ar
  56   33   34 ar
  57   33   53 1
  58   34   35 ar
  59   34   54 1
  60   35   36 ar
  61   35   55 1
  62   36   56 1

#	End of record

