#	Name: ASD01420223
#	Creating user name:	WinNT
#	Creation time:	15. 06. 2019 19:20

#	Modifying user name:	WinNT
#	Modification time:	15. 06. 2019 19:20

#	Program:	/corina/corina34_cracker 3.40 0067  02.08.2006

@<TRIPOS>MOLECULE
ASD01420223
  40   43    0    0    0
SMALL
NO_CHARGES


@<TRIPOS>ATOM
   1 C1            -0.0168     1.3906     0.0097 C.ar    
   2 C2             0.0021    -0.0041     0.0020 C.ar    
   3 C3             1.2369    -0.6809    -0.0134 C.ar    
   4 C4             2.4265     0.0377    -0.0213 C.ar    
   5 C5             2.4038     1.4026    -0.0137 C.ar    
   6 C6             1.1848     2.0926     0.0020 C.ar    
   7 N7            -0.9721    -0.9479     0.0063 N.2     
   8 C8            -0.4278    -2.1402    -0.0054 C.2     
   9 N9             0.9371    -2.0270    -0.0178 N.pl3   
  10 C10           -1.1745    -3.4151    -0.0046 C.2     
  11 C11           -2.5817    -3.5543     0.0080 C.2     
  12 C12           -2.8659    -4.8796     0.0033 C.2     
  13 N13           -1.6885    -5.5581    -0.0118 N.pl3   
  14 N14           -0.6459    -4.6231    -0.0215 N.2     
  15 N15           -3.5170    -2.5070     0.0236 N.am    
  16 C16           -4.8364    -2.7820     0.0346 C.2     
  17 O17           -5.2168    -3.9371     0.0310 O.2     
  18 C18           -5.8191    -1.6819     0.0510 C.ar    
  19 C19           -6.2761    -1.1648     1.2680 C.ar    
  20 C20           -7.1965    -0.1336     1.2741 C.ar    
  21 C21           -7.6660     0.3866     0.0817 C.ar    
  22 C22           -7.2199    -0.1189    -1.1259 C.ar    
  23 C23           -6.2950    -1.1457    -1.1505 C.ar    
  24 F24           -5.8602    -1.6378    -2.3312 F       
  25 F25           -5.8194    -1.6721     2.4339 F       
  26 C26            1.1748     3.5693     0.0102 C.2     
  27 O27            0.1179     4.1700     0.0238 O.2     
  28 N28            2.3374     4.2511     0.0025 N.am    
  29 H29           -0.9571     1.9219     0.0170 H       
  30 H30            3.3715    -0.4852    -0.0331 H       
  31 H31            3.3322     1.9543    -0.0192 H       
  32 H32            1.5747    -2.7580    -0.0281 H       
  33 H33           -3.8527    -5.3184     0.0106 H       
  34 H34           -1.5877    -6.5229    -0.0182 H       
  35 H35           -3.2136    -1.5857     0.0265 H       
  36 H36           -7.5503     0.2668     2.2127 H       
  37 H37           -8.3854     1.1921     0.0937 H       
  38 H38           -7.5920     0.2929    -2.0524 H       
  39 H39            3.1806     3.7719    -0.0083 H       
  40 H40            2.3308     5.2211     0.0079 H       
@<TRIPOS>BOND
   1    1    2 ar
   2    1    6 ar
   3    1   29 1
   4    2    3 ar
   5    2    7 1
   6    3    4 ar
   7    3    9 1
   8    4    5 ar
   9    4   30 1
  10    5    6 ar
  11    5   31 1
  12    6   26 1
  13    7    8 2
  14    8    9 1
  15    8   10 1
  16    9   32 1
  17   10   11 1
  18   10   14 2
  19   11   12 2
  20   11   15 1
  21   12   13 1
  22   12   33 1
  23   13   14 1
  24   13   34 1
  25   15   16 am
  26   15   35 1
  27   16   18 1
  28   16   17 2
  29   18   19 ar
  30   18   23 ar
  31   19   20 ar
  32   19   25 1
  33   20   21 ar
  34   20   36 1
  35   21   22 ar
  36   21   37 1
  37   22   23 ar
  38   22   38 1
  39   23   24 1
  40   26   27 2
  41   26   28 am
  42   28   39 1
  43   28   40 1

#	End of record

