#	Name: ASD08830126
#	Creating user name:	WinNT
#	Creation time:	15. 06. 2019 21:19

#	Modifying user name:	WinNT
#	Modification time:	15. 06. 2019 21:19

#	Program:	/corina/corina34_cracker 3.40 0067  02.08.2006

@<TRIPOS>MOLECULE
ASD08830126
  39   41    0    0    0
SMALL
NO_CHARGES


@<TRIPOS>ATOM
   1 C1            -0.0178     1.4623     0.0101 C.ar    
   2 C2             0.0021    -0.0041     0.0020 C.2     
   3 C3            -1.2866    -0.7758     0.1239 C.3     
   4 C4            -0.9879    -2.2760     0.0887 C.3     
   5 N5            -2.2441    -3.0282     0.2075 N.3     
   6 O6             1.0560    -0.5959    -0.1028 O.2     
   7 C7             1.2297     2.2267     0.0098 C.ar    
   8 C8            -0.0897     4.2753     0.0262 C.ar    
   9 C9            -1.2388     3.5443     0.0195 C.ar    
  10 C10           -1.2244     2.1574     0.0123 C.ar    
  11 C11           -2.0292    -4.4580    -0.0588 C.3     
  12 C12           -3.3480    -5.2113     0.1338 C.3     
  13 O13           -4.3441    -4.6449    -0.7219 O.3     
  14 C14           -4.5794    -3.2536    -0.4893 C.3     
  15 C15           -3.2730    -2.4804    -0.6883 C.3     
  16 C16            1.1643     3.6414     0.0178 C.ar    
  17 C17            2.4764     1.5918     0.0024 C.ar    
  18 C18            3.6150     2.3422     0.0028 C.ar    
  19 C19            3.5546     3.7335     0.0106 C.ar    
  20 C20            2.3581     4.3835     0.0175 C.ar    
  21 H21           -1.7730    -0.5242     1.0664 H       
  22 H22           -1.9450    -0.5168    -0.7052 H       
  23 H23           -0.5015    -2.5275    -0.8538 H       
  24 H24           -0.3295    -2.5349     0.9178 H       
  25 H25           -0.1429     5.3539     0.0317 H       
  26 H26           -2.1882     4.0591     0.0267 H       
  27 H27           -2.1567     1.6121     0.0080 H       
  28 H28           -1.6814    -4.5891    -1.0835 H       
  29 H29           -1.2825    -4.8487     0.6324 H       
  30 H30           -3.2069    -6.2624    -0.1178 H       
  31 H31           -3.6682    -5.1248     1.1721 H       
  32 H32           -5.3288    -2.8888    -1.1917 H       
  33 H33           -4.9354    -3.1102     0.5308 H       
  34 H34           -3.4343    -1.4276    -0.4566 H       
  35 H35           -2.9452    -2.5799    -1.7231 H       
  36 H36            2.5367     0.5135    -0.0033 H       
  37 H37            4.5767     1.8508    -0.0025 H       
  38 H38            4.4707     4.3056     0.0111 H       
  39 H39            2.3265     5.4630     0.0228 H       
@<TRIPOS>BOND
   1    1    2 1
   2    1    7 ar
   3    1   10 ar
   4    2    3 1
   5    2    6 2
   6    3    4 1
   7    3   21 1
   8    3   22 1
   9    4    5 1
  10    4   23 1
  11    4   24 1
  12    5   11 1
  13    5   15 1
  14    7   16 ar
  15    7   17 ar
  16    8    9 ar
  17    8   16 ar
  18    8   25 1
  19    9   10 ar
  20    9   26 1
  21   10   27 1
  22   11   12 1
  23   11   28 1
  24   11   29 1
  25   12   13 1
  26   12   30 1
  27   12   31 1
  28   13   14 1
  29   14   15 1
  30   14   32 1
  31   14   33 1
  32   15   34 1
  33   15   35 1
  34   16   20 ar
  35   17   18 ar
  36   17   36 1
  37   18   19 ar
  38   18   37 1
  39   19   20 ar
  40   19   38 1
  41   20   39 1

#	End of record

