#	Name: ASD01884487
#	Creating user name:	WinNT
#	Creation time:	15. 06. 2019 19:48

#	Modifying user name:	WinNT
#	Modification time:	15. 06. 2019 19:48

#	Program:	/corina/corina34_cracker 3.40 0067  02.08.2006

@<TRIPOS>MOLECULE
ASD01884487
  32   34    0    0    0
SMALL
NO_CHARGES


@<TRIPOS>ATOM
   1 C1            -0.0164     1.3579     0.0095 C.2     
   2 C2             0.0021    -0.0041     0.0020 C.2     
   3 C3             1.2433    -0.6751    -0.0134 C.2     
   4 C4             2.4015     0.0456    -0.0206 C.2     
   5 N5             2.3697     1.4023    -0.0126 N.am    
   6 C6             1.1984     2.0654     0.0017 C.2     
   7 C7             3.6265     2.1550    -0.0196 C.3     
   8 O8             1.1909     3.2860     0.0083 O.2     
   9 C9             4.0447     2.4213    -1.4427 C.ar    
  10 C10            3.6213     3.5705    -2.0838 C.ar    
  11 C11            4.0045     3.8152    -3.3890 C.ar    
  12 C12            4.8120     2.9097    -4.0539 C.ar    
  13 C13            5.2354     1.7597    -3.4118 C.ar    
  14 C14            4.8562     1.5189    -2.1047 C.ar    
  15 Cl15           5.2933     3.2161    -5.6935 Cl      
  16 C16            1.2886    -2.1596    -0.0214 C.2     
  17 C17            0.8318    -3.0644     1.0388 C.2     
  18 C18            1.7559    -2.9592    -1.0135 C.2     
  19 O19            1.6195    -4.2374    -0.6291 O.3     
  20 C20            1.0698    -4.3096     0.5925 C.2     
  21 H21           -0.9563     1.8897     0.0169 H       
  22 H22           -0.9218    -0.5634     0.0082 H       
  23 H23            3.3517    -0.4677    -0.0325 H       
  24 H24            3.4856     3.1023     0.5010 H       
  25 H25            4.4000     1.5753     0.4840 H       
  26 H26            2.9907     4.2771    -1.5647 H       
  27 H27            3.6734     4.7129    -3.8899 H       
  28 H28            5.8658     1.0525    -3.9303 H       
  29 H29            5.1866     0.6212    -1.6033 H       
  30 H30            0.3935    -2.7865     1.9860 H       
  31 H31            2.1678    -2.6233    -1.9537 H       
  32 H32            0.8540    -5.2208     1.1305 H       
@<TRIPOS>BOND
   1    1    2 2
   2    1    6 1
   3    1   21 1
   4    2    3 1
   5    2   22 1
   6    3    4 2
   7    3   16 1
   8    4    5 1
   9    4   23 1
  10    5    6 am
  11    5    7 1
  12    6    8 2
  13    7    9 1
  14    7   24 1
  15    7   25 1
  16    9   10 ar
  17    9   14 ar
  18   10   11 ar
  19   10   26 1
  20   11   12 ar
  21   11   27 1
  22   12   13 ar
  23   12   15 1
  24   13   14 ar
  25   13   28 1
  26   14   29 1
  27   16   17 1
  28   16   18 2
  29   17   20 2
  30   17   30 1
  31   18   19 1
  32   18   31 1
  33   19   20 1
  34   20   32 1

#	End of record

