#	Name: ASD01883976
#	Creating user name:	WinNT
#	Creation time:	15. 06. 2019 19:47

#	Modifying user name:	WinNT
#	Modification time:	15. 06. 2019 19:47

#	Program:	/corina/corina34_cracker 3.40 0067  02.08.2006

@<TRIPOS>MOLECULE
ASD01883976
  49   53    0    0    0
SMALL
NO_CHARGES


@<TRIPOS>ATOM
   1 C1             0.2530     1.5072     0.0136 C.3     
   2 C2             0.1303     0.0052     0.0012 C.2     
   3 N3             0.0971    -0.7646    -1.0789 N.2     
   4 C4            -0.0165    -2.0300    -0.7205 C.2     
   5 C5            -0.1146    -3.4003    -1.2488 C.2     
   6 O6            -0.1068    -3.7017    -2.4272 O.2     
   7 N7            -0.2143    -4.2679    -0.2247 N.am    
   8 C8            -0.3305    -5.7239    -0.3369 C.3     
   9 C9             1.0662    -6.3486    -0.3365 C.3     
  10 C10            1.6064    -6.6486     1.0717 C.3     
  11 C11            2.1672    -7.9579     0.4920 C.3     
  12 C12            1.0615    -7.8681    -0.5730 C.3     
  13 C13           -0.1855    -3.4981     1.0239 C.3     
  14 N14           -0.0592    -2.0887     0.6466 N.pl3   
  15 C15            0.0388    -0.8097     1.1120 C.2     
  16 C16            0.0429    -0.3811     2.5258 C.ar    
  17 C17           -0.8748    -0.9273     3.4253 C.ar    
  18 C18           -0.8686    -0.5253     4.7441 C.ar    
  19 C19            0.0484     0.4216     5.1794 C.ar    
  20 O20            0.0508     0.8148     6.4800 O.3     
  21 C21           -0.6536     1.9262     6.8108 C.ar    
  22 C22           -0.7592     2.3162     8.1434 C.ar    
  23 C23           -1.4902     3.4595     8.4294 C.ar    
  24 C24           -2.0708     4.1436     7.3715 C.ar    
  25 N25           -1.9190     3.7018     6.1385 N.ar    
  26 N26           -1.2390     2.6475     5.8675 N.ar    
  27 C27            0.9652     0.9686     4.2872 C.ar    
  28 F28            1.8566     1.8892     4.7151 F       
  29 C29            0.9685     0.5674     2.9673 C.ar    
  30 H30            1.3066     1.7854     0.0394 H       
  31 H31           -0.2091     1.9169    -0.8846 H       
  32 H32           -0.2497     1.9055     0.8949 H       
  33 H33           -0.9010    -6.1091     0.5082 H       
  34 H34           -0.8415    -5.9771    -1.2659 H       
  35 H35            1.7708    -5.8102    -0.9704 H       
  36 H36            2.3770    -5.9517     1.4013 H       
  37 H37            0.8248    -6.8001     1.8161 H       
  38 H38            3.1738    -7.8597     0.0857 H       
  39 H39            2.0610    -8.8122     1.1607 H       
  40 H40            0.1309    -8.3530    -0.2782 H       
  41 H41            1.3922    -8.1557    -1.5710 H       
  42 H42           -1.1101    -3.6540     1.5797 H       
  43 H43            0.6693    -3.8004     1.6289 H       
  44 H44           -1.5891    -1.6638     3.0881 H       
  45 H45           -1.5788    -0.9476     5.4397 H       
  46 H46           -0.2869     1.7460     8.9296 H       
  47 H47           -1.6044     3.8066     9.4457 H       
  48 H48           -2.6473     5.0377     7.5577 H       
  49 H49            1.6831     0.9886     2.2756 H       
@<TRIPOS>BOND
   1    1    2 1
   2    1   30 1
   3    1   31 1
   4    1   32 1
   5    2   15 2
   6    2    3 1
   7    3    4 2
   8    4   14 1
   9    4    5 1
  10    5    6 2
  11    5    7 am
  12    7    8 1
  13    7   13 1
  14    8    9 1
  15    8   33 1
  16    8   34 1
  17    9   12 1
  18    9   10 1
  19    9   35 1
  20   10   11 1
  21   10   36 1
  22   10   37 1
  23   11   12 1
  24   11   38 1
  25   11   39 1
  26   12   40 1
  27   12   41 1
  28   13   14 1
  29   13   42 1
  30   13   43 1
  31   14   15 1
  32   15   16 1
  33   16   29 ar
  34   16   17 ar
  35   17   18 ar
  36   17   44 1
  37   18   19 ar
  38   18   45 1
  39   19   20 1
  40   19   27 ar
  41   20   21 1
  42   21   26 ar
  43   21   22 ar
  44   22   23 ar
  45   22   46 1
  46   23   24 ar
  47   23   47 1
  48   24   25 ar
  49   24   48 1
  50   25   26 ar
  51   27   28 1
  52   27   29 ar
  53   29   49 1

#	End of record

