#	Name: ASD01148266
#	Creating user name:	WinNT
#	Creation time:	15. 06. 2019 19:02

#	Modifying user name:	WinNT
#	Modification time:	15. 06. 2019 19:02

#	Program:	/corina/corina34_cracker 3.40 0067  02.08.2006

@<TRIPOS>MOLECULE
ASD01148266
  48   51    0    0    0
SMALL
NO_CHARGES


@<TRIPOS>ATOM
   1 C1            -0.0167     1.3802     0.0096 C.ar    
   2 C2             0.0021    -0.0041     0.0020 C.ar    
   3 C3            -1.1870    -0.7112     0.0101 C.ar    
   4 C4            -2.3926    -0.0358     0.0257 C.ar    
   5 C5            -2.4113     1.3467     0.0333 C.ar    
   6 C6            -1.2244     2.0547     0.0306 C.ar    
   7 C7            -3.7267     2.0819     0.0498 C.3     
   8 O8            -4.7310     1.3273     0.7580 O.3     
   9 C9            -3.6330     3.3655     0.9089 C.3     
  10 C10           -4.1234     2.8918     2.2639 C.2     
  11 N11           -4.7174     1.7567     2.1051 N.2     
  12 C12           -3.9504     3.6056     3.5442 C.ar    
  13 C13           -4.4537     3.0541     4.7252 C.ar    
  14 C14           -3.2782     4.8302     3.5761 C.ar    
  15 C15           -3.1169     5.4958     4.7701 C.ar    
  16 C16           -3.6253     4.9471     5.9501 C.ar    
  17 C17           -4.2924     3.7199     5.9191 C.ar    
  18 C18           -3.4521     5.6616     7.2316 C.2     
  19 O19           -2.8674     6.7269     7.2593 O.2     
  20 N20           -3.9425     5.1323     8.3699 N.am    
  21 C21           -4.1874     2.4065    -1.3726 C.3     
  22 F22           -4.3294     1.2193    -2.0991 F       
  23 F23           -5.4163     3.0733    -1.3241 F       
  24 F24           -3.2378     3.2235    -1.9954 F       
  25 Cl25           1.5168    -0.8520    -0.0182 Cl      
  26 Cl26           1.4744     2.2691     0.0002 Cl      
  27 C27           -3.7798     5.8037     9.5741 C.ar    
  28 N28           -4.2679     5.2693    10.6831 N.ar    
  29 N29           -3.1355     6.9606     9.5870 N.ar    
  30 C30           -2.9630     7.6261    10.7170 C.ar    
  31 C31           -3.4660     7.0983    11.8959 C.ar    
  32 C32           -4.1303     5.8827    11.8468 C.ar    
  33 C33           -1.1675    -2.2181     0.0013 C.3     
  34 F34           -2.4803    -2.7015     0.0118 F       
  35 F35           -0.5137    -2.6693    -1.1503 F       
  36 F36           -0.4905    -2.6823     1.1341 F       
  37 H37           -3.3206    -0.5882     0.0316 H       
  38 H38           -1.2398     3.1346     0.0365 H       
  39 H39           -2.6025     3.7152     0.9709 H       
  40 H40           -4.2840     4.1447     0.5125 H       
  41 H41           -4.9697     2.1056     4.7013 H       
  42 H42           -2.8849     5.2542     2.6640 H       
  43 H43           -2.5970     6.4422     4.7948 H       
  44 H44           -4.6854     3.2957     6.8313 H       
  45 H45           -4.4091     4.2822     8.3478 H       
  46 H46           -2.4363     8.5690    10.7211 H       
  47 H47           -3.3392     7.6205    12.8327 H       
  48 H48           -4.5346     5.4440    12.7471 H       
@<TRIPOS>BOND
   1    1    2 ar
   2    1   26 1
   3    1    6 ar
   4    2    3 ar
   5    2   25 1
   6    3    4 ar
   7    3   33 1
   8    4    5 ar
   9    4   37 1
  10    5    6 ar
  11    5    7 1
  12    6   38 1
  13    7    8 1
  14    7    9 1
  15    7   21 1
  16    8   11 1
  17    9   10 1
  18    9   39 1
  19    9   40 1
  20   10   11 2
  21   10   12 1
  22   12   13 ar
  23   12   14 ar
  24   13   17 ar
  25   13   41 1
  26   14   15 ar
  27   14   42 1
  28   15   16 ar
  29   15   43 1
  30   16   17 ar
  31   16   18 1
  32   17   44 1
  33   18   19 2
  34   18   20 am
  35   20   27 1
  36   20   45 1
  37   21   22 1
  38   21   23 1
  39   21   24 1
  40   27   28 ar
  41   27   29 ar
  42   28   32 ar
  43   29   30 ar
  44   30   31 ar
  45   30   46 1
  46   31   32 ar
  47   31   47 1
  48   32   48 1
  49   33   34 1
  50   33   35 1
  51   33   36 1

#	End of record

