#	Name: ASD08150044
#	Creating user name:	WinNT
#	Creation time:	15. 06. 2019 21:15

#	Modifying user name:	WinNT
#	Modification time:	15. 06. 2019 21:15

#	Program:	/corina/corina34_cracker 3.40 0067  02.08.2006

@<TRIPOS>MOLECULE
ASD08150044
  46   50    0    0    0
SMALL
NO_CHARGES


@<TRIPOS>ATOM
   1 N1            -0.0120     1.2932     0.0948 N.2     
   2 C2             0.0057    -0.0050     0.0804 C.2     
   3 N3             1.1470    -0.7358    -0.0147 N.am    
   4 C4             2.3514    -0.1244    -0.1011 C.2     
   5 C5             2.3666     1.3459    -0.0874 C.ar    
   6 C6             3.5532     2.0715    -0.1718 C.ar    
   7 C7             3.5095     3.4483    -0.1550 C.ar    
   8 C8             2.2954     4.1153    -0.0546 C.ar    
   9 C9             1.1120     3.4171     0.0303 C.ar    
  10 C10            1.1301     2.0209     0.0144 C.ar    
  11 O11            3.3819    -0.7667    -0.1863 O.2     
  12 N12            1.0783    -2.1000    -0.0227 N.3     
  13 C13            1.7497    -2.6682     1.1553 C.3     
  14 C14            1.5976    -4.1915     1.1374 C.3     
  15 O15            2.1280    -4.7042    -0.0879 O.3     
  16 C16            1.4966    -4.1724    -1.2557 C.3     
  17 C17            1.6477    -2.6489    -1.2620 C.3     
  18 C18           -1.3073    -0.7388     0.1744 C.3     
  19 N19           -3.8666     1.4661     1.4080 N.2     
  20 C20           -2.9211     0.5902     1.5877 C.2     
  21 N21           -2.3908     0.2242     0.3864 N.pl3   
  22 C22           -3.0576     0.9234    -0.5877 C.ar    
  23 N23           -2.9866     0.9859    -1.9132 N.ar    
  24 C24           -3.7890     1.7791    -2.5915 C.ar    
  25 N25           -4.6921     2.5434    -2.0050 N.ar    
  26 C26           -4.8365     2.5480    -0.6838 C.ar    
  27 C27           -4.0030     1.7172     0.0838 C.ar    
  28 N28           -5.7856     3.3528    -0.0781 N.pl3   
  29 H29            4.5003     1.5582    -0.2493 H       
  30 H30            4.4273     4.0139    -0.2202 H       
  31 H31            2.2796     5.1951    -0.0425 H       
  32 H32            0.1740     3.9467     0.1080 H       
  33 H33            2.8079    -2.4078     1.1321 H       
  34 H34            1.2955    -2.2677     2.0616 H       
  35 H35            2.1422    -4.6216     1.9779 H       
  36 H36            0.5422    -4.4529     1.2147 H       
  37 H37            1.9682    -4.5886    -2.1459 H       
  38 H38            0.4383    -4.4331    -1.2480 H       
  39 H39            1.1189    -2.2342    -2.1203 H       
  40 H40            2.7042    -2.3882    -1.3239 H       
  41 H41           -1.4842    -1.2869    -0.7510 H       
  42 H42           -1.2738    -1.4378     1.0101 H       
  43 H43           -2.6031     0.2096     2.5471 H       
  44 H44           -3.7052     1.8061    -3.6679 H       
  45 H45           -6.3550     3.9223    -0.6189 H       
  46 H46           -5.8814     3.3474     0.8871 H       
@<TRIPOS>BOND
   1    1    2 2
   2    1   10 1
   3    2    3 1
   4    2   18 1
   5    3    4 am
   6    3   12 1
   7    4    5 1
   8    4   11 2
   9    5    6 ar
  10    5   10 ar
  11    6    7 ar
  12    6   29 1
  13    7    8 ar
  14    7   30 1
  15    8    9 ar
  16    8   31 1
  17    9   10 ar
  18    9   32 1
  19   12   13 1
  20   12   17 1
  21   13   14 1
  22   13   33 1
  23   13   34 1
  24   14   15 1
  25   14   35 1
  26   14   36 1
  27   15   16 1
  28   16   17 1
  29   16   37 1
  30   16   38 1
  31   17   39 1
  32   17   40 1
  33   18   21 1
  34   18   41 1
  35   18   42 1
  36   19   20 2
  37   19   27 1
  38   20   21 1
  39   20   43 1
  40   21   22 1
  41   22   23 ar
  42   22   27 ar
  43   23   24 ar
  44   24   25 ar
  45   24   44 1
  46   25   26 ar
  47   26   27 ar
  48   26   28 1
  49   28   45 1
  50   28   46 1

#	End of record

