#	Name: ASD03331619
#	Creating user name:	WinNT
#	Creation time:	15. 06. 2019 20:39

#	Modifying user name:	WinNT
#	Modification time:	15. 06. 2019 20:39

#	Program:	/corina/corina34_cracker 3.40 0067  02.08.2006

@<TRIPOS>MOLECULE
ASD03331619
  51   54    0    0    0
SMALL
NO_CHARGES


@<TRIPOS>ATOM
   1 C1            -0.0168     1.3857     0.0097 C.ar    
   2 C2             0.0021    -0.0041     0.0020 C.ar    
   3 C3            -1.1731    -0.7218     0.0094 C.ar    
   4 C4            -2.3931    -0.0521     0.0251 C.ar    
   5 C5            -2.4101     1.3565     0.0333 C.ar    
   6 C6            -1.2016     2.0646     0.0303 C.ar    
   7 N7            -3.7005    -0.4788     0.0354 N.pl3   
   8 C8            -4.5290     0.6265     0.0498 C.2     
   9 C9            -3.7693     1.7530     0.0488 C.2     
  10 Cl10           1.4792     2.2664     0.0001 Cl      
  11 C11           -4.2815     3.1702     0.0619 C.3     
  12 C12           -4.4413     3.6414     1.5088 C.3     
  13 C13           -5.9991     0.5898     0.0635 C.2     
  14 O14           -6.6333     1.6278     0.0752 O.2     
  15 N15           -6.6437    -0.5938     0.0631 N.am    
  16 C16           -8.1081    -0.6304     0.0767 C.3     
  17 C17           -8.6156    -1.9488    -0.5361 C.3     
  18 C18           -8.6313    -0.6336     1.5315 C.3     
  19 C19           -9.8267    -1.6172     1.4676 C.3     
  20 N20           -9.3549    -2.6647     0.5261 N.3     
  21 C21          -10.4856    -3.4165    -0.0345 C.3     
  22 C22          -11.1041    -4.2707     1.0420 C.ar    
  23 C23          -12.1266    -3.7654     1.8230 C.ar    
  24 C24          -12.6939    -4.5489     2.8106 C.ar    
  25 C25          -12.2390    -5.8379     3.0168 C.ar    
  26 C26          -11.2171    -6.3435     2.2351 C.ar    
  27 C27          -10.6527    -5.5615     1.2447 C.ar    
  28 H28            0.9475    -0.5261    -0.0102 H       
  29 H29           -1.1482    -1.8015     0.0026 H       
  30 H30           -1.2067     3.1446     0.0365 H       
  31 H31           -3.9928    -1.4037     0.0327 H       
  32 H32           -3.5728     3.8174    -0.4548 H       
  33 H33           -5.2467     3.2124    -0.4427 H       
  34 H34           -5.1500     2.9942     2.0255 H       
  35 H35           -3.4760     3.5992     2.0133 H       
  36 H36           -4.8117     4.6665     1.5182 H       
  37 H37           -6.1379    -1.4215     0.0538 H       
  38 H38           -8.5123     0.2214    -0.4703 H       
  39 H39           -9.2806    -1.7373    -1.3734 H       
  40 H40           -7.7716    -2.5513    -0.8718 H       
  41 H41           -7.8661    -1.0003     2.2157 H       
  42 H42           -8.9660     0.3618     1.8232 H       
  43 H43          -10.0260    -2.0447     2.4503 H       
  44 H44          -10.7139    -1.1195     1.0762 H       
  45 H45          -11.2307    -2.7196    -0.4182 H       
  46 H46          -10.1321    -4.0534    -0.8454 H       
  47 H47          -12.4821    -2.7584     1.6619 H       
  48 H48          -13.4923    -4.1539     3.4212 H       
  49 H49          -12.6817    -6.4498     3.7887 H       
  50 H50          -10.8614    -7.3504     2.3965 H       
  51 H51           -9.8543    -5.9565     0.6341 H       
@<TRIPOS>BOND
   1    1    2 ar
   2    1   10 1
   3    1    6 ar
   4    2    3 ar
   5    2   28 1
   6    3    4 ar
   7    3   29 1
   8    4    5 ar
   9    4    7 1
  10    5    6 ar
  11    5    9 1
  12    6   30 1
  13    7    8 1
  14    7   31 1
  15    8    9 2
  16    8   13 1
  17    9   11 1
  18   11   12 1
  19   11   32 1
  20   11   33 1
  21   12   34 1
  22   12   35 1
  23   12   36 1
  24   13   14 2
  25   13   15 am
  26   15   16 1
  27   15   37 1
  28   16   17 1
  29   16   18 1
  30   16   38 1
  31   17   20 1
  32   17   39 1
  33   17   40 1
  34   18   19 1
  35   18   41 1
  36   18   42 1
  37   19   20 1
  38   19   43 1
  39   19   44 1
  40   20   21 1
  41   21   22 1
  42   21   45 1
  43   21   46 1
  44   22   23 ar
  45   22   27 ar
  46   23   24 ar
  47   23   47 1
  48   24   25 ar
  49   24   48 1
  50   25   26 ar
  51   25   49 1
  52   26   27 ar
  53   26   50 1
  54   27   51 1

#	End of record

