#	Name: ASD01900507
#	Creating user name:	WinNT
#	Creation time:	15. 06. 2019 19:52

#	Modifying user name:	WinNT
#	Modification time:	15. 06. 2019 19:52

#	Program:	/corina/corina34_cracker 3.40 0067  02.08.2006

@<TRIPOS>MOLECULE
ASD01900507
  28   30    0    0    0
SMALL
NO_CHARGES


@<TRIPOS>ATOM
   1 C1            -0.0152     1.5204    -0.5802 C.ar    
   2 C2             0.0524     0.4086    -1.4326 C.ar    
   3 C3             1.2636    -0.2640    -1.5711 C.ar    
   4 C4             2.3542     0.1969    -0.8572 C.ar    
   5 C5             2.2140     1.3037    -0.0322 C.ar    
   6 N6             1.0614     1.9249     0.0843 N.ar    
   7 O7            -1.1728     0.2326    -1.9653 O.3     
   8 N8            -2.0488     1.2240    -1.4677 N.2     
   9 C9            -1.4061     2.0015    -0.6418 C.2     
  10 N10           -1.9330     3.0871     0.0457 N.pl3   
  11 C11           -3.3021     3.3613    -0.0243 C.ar    
  12 C12           -3.7576     4.6676     0.1028 C.ar    
  13 C13           -5.1104     4.9355     0.0333 C.ar    
  14 C14           -6.0123     3.9040    -0.1624 C.ar    
  15 C15           -5.5614     2.6020    -0.2894 C.ar    
  16 C16           -4.2089     2.3290    -0.2268 C.ar    
  17 C17           -5.6053     6.3522     0.1711 C.3     
  18 F18           -4.5166     7.2102     0.3600 F       
  19 F19           -6.2936     6.7208    -0.9898 F       
  20 F20           -6.4652     6.4409     1.2711 F       
  21 Cl21          -7.7125     4.2443    -0.2482 Cl      
  22 H22            1.3488    -1.1238    -2.2192 H       
  23 H23            3.3088    -0.3014    -0.9409 H       
  24 H24            3.0676     1.6613     0.5245 H       
  25 H25           -1.3510     3.6551     0.5745 H       
  26 H26           -3.0544     5.4727     0.2563 H       
  27 H27           -6.2674     1.7991    -0.4417 H       
  28 H28           -3.8572     1.3132    -0.3304 H       
@<TRIPOS>BOND
   1    1    2 ar
   2    1    6 ar
   3    1    9 1
   4    2    3 ar
   5    2    7 1
   6    3    4 ar
   7    3   22 1
   8    4    5 ar
   9    4   23 1
  10    5    6 ar
  11    5   24 1
  12    7    8 1
  13    8    9 2
  14    9   10 1
  15   10   11 1
  16   10   25 1
  17   11   12 ar
  18   11   16 ar
  19   12   13 ar
  20   12   26 1
  21   13   14 ar
  22   13   17 1
  23   14   15 ar
  24   14   21 1
  25   15   16 ar
  26   15   27 1
  27   16   28 1
  28   17   18 1
  29   17   19 1
  30   17   20 1

#	End of record

