#	Name: ASD00843276
#	Creating user name:	WinNT
#	Creation time:	15. 06. 2019 18:46

#	Modifying user name:	WinNT
#	Modification time:	15. 06. 2019 18:46

#	Program:	/corina/corina34_cracker 3.40 0067  02.08.2006

@<TRIPOS>MOLECULE
ASD00843276
  87   92    0    0    0
SMALL
NO_CHARGES


@<TRIPOS>ATOM
   1 N1             0.7499     1.1397    -0.5944 N.ar    
   2 C2             0.9626    -0.1487    -0.8039 C.ar    
   3 C3             0.9011    -1.0562     0.2461 C.ar    
   4 C4             0.6138    -0.5948     1.5187 C.ar    
   5 C5             0.3969     0.7648     1.6968 C.ar    
   6 C6             0.4739     1.6094     0.6076 C.ar    
   7 C7             1.1437    -2.5234     0.0025 C.3     
   8 C8             0.8859    -3.3202     1.2636 C.2     
   9 C9             0.2610    -3.0287    -1.1405 C.3     
  10 C10           -1.1795    -2.6970    -0.8472 C.2     
  11 N11           -2.1498    -3.1045    -1.6891 N.am    
  12 O12           -1.4656    -2.0633     0.1466 O.2     
  13 C13           -3.5439    -2.6894    -1.4817 C.3     
  14 C14           -4.4299    -3.9385    -1.4440 C.3     
  15 C15           -4.2011    -4.7599    -2.7149 C.3     
  16 C16           -2.7388    -5.2067    -2.7791 C.3     
  17 C17           -1.8327    -3.9674    -2.8352 C.3     
  18 N18           -5.0737    -5.9416    -2.6975 N.3     
  19 C19           -4.9684    -6.6924    -3.9564 C.3     
  20 C20           -5.8292    -7.9549    -3.8678 C.3     
  21 N21           -7.2234    -7.5761    -3.5988 N.3     
  22 C22           -7.3286    -6.8253    -2.3399 C.3     
  23 C23           -6.4679    -5.5628    -2.4285 C.3     
  24 H24           -7.6097    -7.0491    -4.3675 H       
  25 O25           -0.1662    -3.4022     1.8615 O.2     
  26 N26            2.0418    -3.9190     1.5965 N.am    
  27 C27            2.6028    -2.7758    -0.3002 C.ar    
  28 C28            3.0690    -3.6204     0.6998 C.ar    
  29 C29            3.4386    -2.3421    -1.3044 C.ar    
  30 C30            4.7624    -2.7481    -1.3255 C.ar    
  31 C31            5.2398    -3.5905    -0.3339 C.ar    
  32 C32            4.4013    -4.0261     0.6743 C.ar    
  33 Cl33           5.8202    -2.2044    -2.5900 Cl      
  34 F34            6.5310    -3.9875    -0.3531 F       
  35 C35            1.8611    -6.5438     2.4041 C.ar    
  36 C36            0.5789    -6.8728     1.9896 C.ar    
  37 C37            2.8528    -7.5058     2.4076 C.ar    
  38 C38            2.5683    -8.7952     1.9981 C.ar    
  39 C39            1.2908    -9.1257     1.5843 C.ar    
  40 C40            0.2957    -8.1678     1.5794 C.ar    
  41 H41            1.0710   -10.1336     1.2648 H       
  42 O42           -0.3985    -5.9286     1.9856 O.3     
  43 C43           -1.6950    -6.3386     1.5462 C.3     
  44 C44           -2.6551    -5.1492     1.6107 C.3     
  45 S45            2.2264    -4.8988     2.9188 S.o2    
  46 O46            3.6097    -4.8779     3.2436 O.2     
  47 O47            1.2068    -4.5298     3.8371 O.2     
  48 O48            1.2430    -0.5884    -2.0564 O.3     
  49 C49            1.2136     0.3810    -3.1060 C.3     
  50 C50            1.6450    -0.2757    -4.4189 C.3     
  51 F51            2.9083    -0.8547    -4.2577 F       
  52 F52            0.7203    -1.2646    -4.7715 F       
  53 H53            0.5591    -1.2770     2.3542 H       
  54 H54            0.1701     1.1575     2.6770 H       
  55 H55            0.3064     2.6679     0.7408 H       
  56 H56            0.5620    -2.5485    -2.0716 H       
  57 H57            0.3729    -4.1087    -1.2360 H       
  58 H58           -3.6286    -2.1526    -0.5369 H       
  59 H59           -3.8583    -2.0429    -2.3011 H       
  60 H60           -4.1744    -4.5395    -0.5714 H       
  61 H61           -5.4768    -3.6403    -1.3871 H       
  62 H62           -4.4332    -4.1501    -3.5881 H       
  63 H63           -2.4992    -5.7959    -1.8939 H       
  64 H64           -2.5821    -5.8113    -3.6725 H       
  65 H65           -2.0090    -3.4277    -3.7656 H       
  66 H66           -0.7886    -4.2755    -2.7813 H       
  67 H67           -5.3181    -6.0710    -4.7808 H       
  68 H68           -3.9289    -6.9723    -4.1271 H       
  69 H69           -5.7755    -8.4985    -4.8110 H       
  70 H70           -5.4624    -8.5891    -3.0607 H       
  71 H71           -8.3681    -6.5454    -2.1692 H       
  72 H72           -6.9789    -7.4467    -1.5155 H       
  73 H73           -6.5215    -5.0192    -1.4853 H       
  74 H74           -6.8346    -4.9286    -3.2356 H       
  75 H75            3.0622    -1.6860    -2.0753 H       
  76 H76            4.7797    -4.6822     1.4442 H       
  77 H77            3.8513    -7.2501     2.7303 H       
  78 H78            3.3451    -9.5455     2.0009 H       
  79 H79           -0.7020    -8.4266     1.2569 H       
  80 H80           -1.6332    -6.7005     0.5199 H       
  81 H81           -2.0616    -7.1369     2.1915 H       
  82 H82           -2.7169    -4.7873     2.6370 H       
  83 H83           -2.2885    -4.3509     0.9654 H       
  84 H84           -3.6441    -5.4619     1.2756 H       
  85 H85            0.2018     0.7725    -3.2108 H       
  86 H86            1.8958     1.1966    -2.8665 H       
  87 H87            1.6884     0.4780    -5.2051 H       
@<TRIPOS>BOND
   1    1    2 ar
   2    1    6 ar
   3    2    3 ar
   4    2   48 1
   5    3    4 ar
   6    3    7 1
   7    4    5 ar
   8    4   53 1
   9    5    6 ar
  10    5   54 1
  11    6   55 1
  12    7    8 1
  13    7    9 1
  14    7   27 1
  15    8   25 2
  16    8   26 am
  17    9   10 1
  18    9   56 1
  19    9   57 1
  20   10   11 am
  21   10   12 2
  22   11   13 1
  23   11   17 1
  24   13   14 1
  25   13   58 1
  26   13   59 1
  27   14   15 1
  28   14   60 1
  29   14   61 1
  30   15   16 1
  31   15   18 1
  32   15   62 1
  33   16   17 1
  34   16   63 1
  35   16   64 1
  36   17   65 1
  37   17   66 1
  38   18   19 1
  39   18   23 1
  40   19   20 1
  41   19   67 1
  42   19   68 1
  43   20   21 1
  44   20   69 1
  45   20   70 1
  46   21   22 1
  47   21   24 1
  48   22   23 1
  49   22   71 1
  50   22   72 1
  51   23   73 1
  52   23   74 1
  53   26   45 am
  54   26   28 1
  55   27   28 ar
  56   27   29 ar
  57   28   32 ar
  58   29   30 ar
  59   29   75 1
  60   30   31 ar
  61   30   33 1
  62   31   32 ar
  63   31   34 1
  64   32   76 1
  65   35   36 ar
  66   35   37 ar
  67   35   45 1
  68   36   42 1
  69   36   40 ar
  70   37   38 ar
  71   37   77 1
  72   38   39 ar
  73   38   78 1
  74   39   40 ar
  75   39   41 1
  76   40   79 1
  77   42   43 1
  78   43   44 1
  79   43   80 1
  80   43   81 1
  81   44   82 1
  82   44   83 1
  83   44   84 1
  84   45   46 2
  85   45   47 2
  86   48   49 1
  87   49   50 1
  88   49   85 1
  89   49   86 1
  90   50   51 1
  91   50   52 1
  92   50   87 1

#	End of record

