#	Name: ASD03730939
#	Creating user name:	WinNT
#	Creation time:	15. 06. 2019 20:44

#	Modifying user name:	WinNT
#	Modification time:	15. 06. 2019 20:44

#	Program:	/corina/corina34_cracker 3.40 0067  02.08.2006

@<TRIPOS>MOLECULE
ASD03730939
  68   74    0    0    0
SMALL
NO_CHARGES


@<TRIPOS>ATOM
   1 C1            -0.0182     1.4735     0.0148 C.2     
   2 C2             0.0014    -0.0045     0.0118 C.ar    
   3 C3             1.2179    -0.6895     0.0014 C.ar    
   4 C4             1.2291    -2.0688    -0.0015 C.ar    
   5 C5             0.0382    -2.7735     0.0060 C.ar    
   6 C6            -1.1707    -2.1009     0.0164 C.ar    
   7 C7            -1.1960    -0.7214     0.0251 C.ar    
   8 O8             1.0264     2.0953     0.0082 O.2     
   9 N9            -1.1942     2.1319     0.0193 N.am    
  10 C10           -1.2149     3.5256     0.1325 C.ar    
  11 C11           -2.1829     4.2639    -0.5360 C.ar    
  12 C12           -2.2006     5.6401    -0.4222 C.ar    
  13 C13           -1.2556     6.2832     0.3561 C.ar    
  14 C14           -0.2904     5.5511     1.0231 C.ar    
  15 C15           -0.2710     4.1741     0.9184 C.ar    
  16 C16           -1.2773     7.7851     0.4773 C.3     
  17 C17           -2.1560     8.1885     1.6631 C.3     
  18 C18           -2.1780     9.7134     1.7861 C.3     
  19 C19            2.5412    -2.8099    -0.0132 C.3     
  20 O20           -0.9086    -3.3033     6.2754 O.3     
  21 C21           -0.9521    -3.5535     7.6926 C.3     
  22 O22           -0.0475    -4.6591     7.8730 O.3     
  23 C23            0.8521    -4.5663     6.8498 C.ar    
  24 C24            0.3216    -3.7334     5.8673 C.ar    
  25 C25            2.1015    -5.1337     6.6748 C.ar    
  26 C26            2.8356    -4.8801     5.5201 C.ar    
  27 C27            2.2916    -4.0530     4.5421 C.ar    
  28 C28            1.0488    -3.4809     4.7162 C.ar    
  29 O29            4.0763    -5.3190     5.1617 O.3     
  30 C30            3.2952    -3.9965     3.4215 C.3     
  31 C31            4.2442    -5.1599     3.7398 C.3     
  32 N32            2.9772    -3.0529     1.3641 N.am    
  33 C33            2.6515    -4.1516     2.0738 C.2     
  34 C34            4.0180    -2.6832     3.3683 C.ar    
  35 C35            4.7885    -1.9841     4.2703 C.ar    
  36 C36            5.3352    -0.7637     3.9153 C.ar    
  37 C37            5.1053    -0.2477     2.6529 C.ar    
  38 C38            4.3335    -0.9437     1.7462 C.ar    
  39 C39            3.7796    -2.1731     2.0947 C.ar    
  40 O40            1.9721    -5.0832     1.6974 O.2     
  41 H41            2.1480    -0.1407    -0.0048 H       
  42 H42            0.0525    -3.8534     0.0034 H       
  43 H43           -2.0966    -2.6568     0.0222 H       
  44 H44           -2.1403    -0.1975     0.0381 H       
  45 H45           -2.0262     1.6390    -0.0560 H       
  46 H46           -2.9208     3.7623    -1.1446 H       
  47 H47           -2.9530     6.2148    -0.9418 H       
  48 H48            0.4464     6.0564     1.6298 H       
  49 H49            0.4803     3.6026     1.4431 H       
  50 H50           -0.2630     8.1516     0.6355 H       
  51 H51           -1.6812     8.2177    -0.4380 H       
  52 H52           -3.1703     7.8220     1.5049 H       
  53 H53           -1.7520     7.7559     2.5784 H       
  54 H54           -2.8040    10.0007     2.6309 H       
  55 H55           -1.1637    10.0798     1.9443 H       
  56 H56           -2.5820    10.1459     0.8708 H       
  57 H57            2.4158    -3.7625    -0.5280 H       
  58 H58            3.2912    -2.2127    -0.5318 H       
  59 H59           -0.6055    -2.6809     8.2463 H       
  60 H60           -1.9602    -3.8291     8.0021 H       
  61 H61            2.5099    -5.7778     7.4394 H       
  62 H62            0.6416    -2.8346     3.9528 H       
  63 H63            5.2741    -4.8965     3.4987 H       
  64 H64            3.9404    -6.0631     3.2106 H       
  65 H65            4.9665    -2.3888     5.2556 H       
  66 H66            5.9402    -0.2155     4.6223 H       
  67 H67            5.5320     0.7050     2.3759 H       
  68 H68            4.1581    -0.5340     0.7624 H       
@<TRIPOS>BOND
   1    1    2 1
   2    1    8 2
   3    1    9 am
   4    2    3 ar
   5    2    7 ar
   6    3    4 ar
   7    3   41 1
   8    4    5 ar
   9    4   19 1
  10    5    6 ar
  11    5   42 1
  12    6    7 ar
  13    6   43 1
  14    7   44 1
  15    9   10 1
  16    9   45 1
  17   10   11 ar
  18   10   15 ar
  19   11   12 ar
  20   11   46 1
  21   12   13 ar
  22   12   47 1
  23   13   14 ar
  24   13   16 1
  25   14   15 ar
  26   14   48 1
  27   15   49 1
  28   16   17 1
  29   16   50 1
  30   16   51 1
  31   17   18 1
  32   17   52 1
  33   17   53 1
  34   18   54 1
  35   18   55 1
  36   18   56 1
  37   19   32 1
  38   19   57 1
  39   19   58 1
  40   20   21 1
  41   20   24 1
  42   21   22 1
  43   21   59 1
  44   21   60 1
  45   22   23 1
  46   23   24 ar
  47   23   25 ar
  48   24   28 ar
  49   25   26 ar
  50   25   61 1
  51   26   27 ar
  52   26   29 1
  53   27   28 ar
  54   27   30 1
  55   28   62 1
  56   29   31 1
  57   30   31 1
  58   30   33 1
  59   30   34 1
  60   31   63 1
  61   31   64 1
  62   32   33 am
  63   32   39 1
  64   33   40 2
  65   34   35 ar
  66   34   39 ar
  67   35   36 ar
  68   35   65 1
  69   36   37 ar
  70   36   66 1
  71   37   38 ar
  72   37   67 1
  73   38   39 ar
  74   38   68 1

#	End of record

