#	Name: ASD01811481
#	Creating user name:	WinNT
#	Creation time:	15. 06. 2019 19:26

#	Modifying user name:	WinNT
#	Modification time:	15. 06. 2019 19:26

#	Program:	/corina/corina34_cracker 3.40 0067  02.08.2006

@<TRIPOS>MOLECULE
ASD01811481
  68   73    0    0    0
SMALL
NO_CHARGES


@<TRIPOS>ATOM
   1 C1            -0.1569    14.9589    -5.5114 C.1     
   2 C2            -0.2465    13.8794    -4.5748 C.ar    
   3 C3            -0.4720    12.5771    -5.0250 C.ar    
   4 C4            -0.5573    11.5419    -4.1172 C.ar    
   5 C5            -0.4203    11.7919    -2.7633 C.ar    
   6 C6            -0.1971    13.0800    -2.3102 C.ar    
   7 C7            -0.1030    14.1236    -3.2075 C.ar    
   8 N8            -0.0859    15.8152    -6.2545 N.1     
   9 N9            -1.4139     9.4372     0.6114 N.am    
  10 C10           -0.0352     9.9431     0.5679 C.3     
  11 C11            0.0307    11.1104    -0.4219 C.3     
  12 C12           -0.5151    10.6560    -1.7775 C.3     
  13 C13           -1.9783    10.2342    -1.6248 C.3     
  14 C14           -2.0670     9.0569    -0.6486 C.3     
  15 F15            0.2362     9.5713    -2.2426 F       
  16 C16           -2.0653     9.3190     1.7854 C.2     
  17 C17           -1.3578     9.5937     3.0544 C.ar    
  18 C18           -1.9766    10.3474     4.0500 C.ar    
  19 C19           -1.3034    10.6012     5.2423 C.ar    
  20 C20           -0.0141    10.0996     5.4332 C.ar    
  21 C21            0.5937     9.3540     4.4428 C.ar    
  22 C22           -0.0703     9.0937     3.2603 C.ar    
  23 O23           -3.2343     8.9864     1.8010 O.2     
  24 C24           -1.9524    11.4007     6.3043 C.2     
  25 N25           -3.1389    12.0708     6.1887 N.pl3   
  26 C26           -3.3697    12.6703     7.3856 C.2     
  27 C27           -2.3322    12.3565     8.2000 C.2     
  28 N28           -1.4882    11.5832     7.5241 N.2     
  29 C29           -4.5265    13.5359     7.8135 C.3     
  30 C30           -2.2399    12.8439     9.6262 C.3     
  31 C31           -3.6305    13.3477    10.0391 C.3     
  32 O32           -4.1520    14.2088     9.0238 O.3     
  33 C33           -1.8125    11.6941    10.5405 C.3     
  34 C34            0.7158    10.3733     6.7230 C.3     
  35 C35            0.9487     9.1163     7.5777 C.3     
  36 C36            2.3435     9.6834     7.8906 C.3     
  37 C37            2.2432    10.4511     6.5619 C.3     
  38 H38           -0.5798    12.3807    -6.0815 H       
  39 H39           -0.7317    10.5341    -4.4641 H       
  40 H40           -0.0915    13.2682    -1.2520 H       
  41 H41            0.0761    15.1279    -2.8528 H       
  42 H42            0.2591    10.2876     1.5593 H       
  43 H43            0.6354     9.1485     0.2410 H       
  44 H44           -0.5698    11.9394    -0.0473 H       
  45 H45            1.0657    11.4327    -0.5359 H       
  46 H46           -2.5599    11.0714    -1.2389 H       
  47 H47           -2.3732     9.9328    -2.5950 H       
  48 H48           -1.5620     8.1900    -1.0748 H       
  49 H49           -3.1133     8.8167    -0.4599 H       
  50 H50           -2.9736    10.7333     3.8973 H       
  51 H51            1.5912     8.9691     4.5952 H       
  52 H52            0.4089     8.5060     2.4913 H       
  53 H53           -3.7063    12.1108     5.4029 H       
  54 H54           -4.7454    14.2688     7.0370 H       
  55 H55           -5.4043    12.9153     7.9934 H       
  56 H56           -1.5176    13.6576     9.6924 H       
  57 H57           -4.2995    12.4975    10.1722 H       
  58 H58           -3.5532    13.8979    10.9769 H       
  59 H59           -0.8386    11.3207    10.2236 H       
  60 H60           -1.7476    12.0518    11.5681 H       
  61 H61           -2.5465    10.8905    10.4811 H       
  62 H62            0.2912    11.2080     7.2807 H       
  63 H63            0.2971     9.0540     8.4492 H       
  64 H64            0.9725     8.1930     6.9989 H       
  65 H65            2.3652    10.3299     8.7679 H       
  66 H66            3.1296     8.9284     7.9005 H       
  67 H67            2.6209     9.8926     5.7054 H       
  68 H68            2.6365    11.4663     6.6135 H       
@<TRIPOS>BOND
   1    1    2 1
   2    1    8 3
   3    2    3 ar
   4    2    7 ar
   5    3    4 ar
   6    3   38 1
   7    4    5 ar
   8    4   39 1
   9    5    6 ar
  10    5   12 1
  11    6    7 ar
  12    6   40 1
  13    7   41 1
  14    9   10 1
  15    9   14 1
  16    9   16 am
  17   10   11 1
  18   10   42 1
  19   10   43 1
  20   11   12 1
  21   11   44 1
  22   11   45 1
  23   12   13 1
  24   12   15 1
  25   13   14 1
  26   13   46 1
  27   13   47 1
  28   14   48 1
  29   14   49 1
  30   16   17 1
  31   16   23 2
  32   17   18 ar
  33   17   22 ar
  34   18   19 ar
  35   18   50 1
  36   19   20 ar
  37   19   24 1
  38   20   21 ar
  39   20   34 1
  40   21   22 ar
  41   21   51 1
  42   22   52 1
  43   24   25 1
  44   24   28 2
  45   25   26 1
  46   25   53 1
  47   26   27 2
  48   26   29 1
  49   27   28 1
  50   27   30 1
  51   29   32 1
  52   29   54 1
  53   29   55 1
  54   30   31 1
  55   30   33 1
  56   30   56 1
  57   31   32 1
  58   31   57 1
  59   31   58 1
  60   33   59 1
  61   33   60 1
  62   33   61 1
  63   34   35 1
  64   34   37 1
  65   34   62 1
  66   35   36 1
  67   35   63 1
  68   35   64 1
  69   36   37 1
  70   36   65 1
  71   36   66 1
  72   37   67 1
  73   37   68 1

#	End of record

