#	Name: ASD02030549
#	Creating user name:	WinNT
#	Creation time:	15. 06. 2019 20:15

#	Modifying user name:	WinNT
#	Modification time:	15. 06. 2019 20:15

#	Program:	/corina/corina34_cracker 3.40 0067  02.08.2006

@<TRIPOS>MOLECULE
ASD02030549
  34   35    0    0    0
SMALL
NO_CHARGES


@<TRIPOS>ATOM
   1 C1            -0.0170     1.4006     0.0097 C.ar    
   2 C2             0.0021    -0.0041     0.0020 C.ar    
   3 C3             1.1902    -0.6670    -0.0549 C.ar    
   4 C4             2.3945     0.0405    -0.0957 C.ar    
   5 C5             2.3964     1.4286    -0.0646 C.ar    
   6 C6             1.1973     2.1178     0.0020 C.ar    
   7 O7             1.1927     3.4699     0.0828 O.3     
   8 C8             0.0990     4.0967    -0.4065 C.2     
   9 C9            -1.2159     3.4787    -0.1629 C.2     
  10 C10           -1.2462     2.1002     0.0311 C.2     
  11 O11            0.1978     5.1378    -1.0287 O.2     
  12 C12           -2.4449     4.2839    -0.1256 C.2     
  13 O13           -3.5169     3.7477     0.0775 O.2     
  14 O14           -2.3834     5.6170    -0.3165 O.3     
  15 N15            3.5977    -0.6495    -0.1674 N.pl3   
  16 C16            3.6015    -2.1141    -0.2000 C.3     
  17 C17            3.5352    -2.5920    -1.6520 C.3     
  18 C18            4.8632     0.0874    -0.2104 C.3     
  19 C19            5.3713     0.3120     1.2152 C.3     
  20 H20           -0.9245    -0.5575     0.0415 H       
  21 H21            1.2018    -1.7468    -0.0683 H       
  22 H22            3.3308     1.9694    -0.0918 H       
  23 H23           -2.1793     1.5810     0.1925 H       
  24 H24           -3.2180     6.1043    -0.2830 H       
  25 H25            4.5155    -2.4855     0.2634 H       
  26 H26            2.7374    -2.4919     0.3466 H       
  27 H27            4.3993    -2.2142    -2.1986 H       
  28 H28            3.5380    -3.6818    -1.6762 H       
  29 H29            2.6212    -2.2206    -2.1154 H       
  30 H30            5.5995    -0.4874    -0.7722 H       
  31 H31            4.7066     1.0505    -0.6962 H       
  32 H32            4.6350     0.8868     1.7770 H       
  33 H33            5.5280    -0.6511     1.7010 H       
  34 H34            6.3128     0.8602     1.1832 H       
@<TRIPOS>BOND
   1    1    2 ar
   2    1    6 ar
   3    1   10 1
   4    2    3 ar
   5    2   20 1
   6    3    4 ar
   7    3   21 1
   8    4    5 ar
   9    4   15 1
  10    5    6 ar
  11    5   22 1
  12    6    7 1
  13    7    8 1
  14    8    9 1
  15    8   11 2
  16    9   10 2
  17    9   12 1
  18   10   23 1
  19   12   13 2
  20   12   14 1
  21   14   24 1
  22   15   16 1
  23   15   18 1
  24   16   17 1
  25   16   25 1
  26   16   26 1
  27   17   27 1
  28   17   28 1
  29   17   29 1
  30   18   19 1
  31   18   30 1
  32   18   31 1
  33   19   32 1
  34   19   33 1
  35   19   34 1

#	End of record

