#	Name: ASD03180092
#	Creating user name:	WinNT
#	Creation time:	15. 06. 2019 20:33

#	Modifying user name:	WinNT
#	Modification time:	15. 06. 2019 20:33

#	Program:	/corina/corina34_cracker 3.40 0067  02.08.2006

@<TRIPOS>MOLECULE
ASD03180092
  41   43    0    0    0
SMALL
NO_CHARGES


@<TRIPOS>ATOM
   1 C1            -0.0225     1.1508    -0.0112 C.ar    
   2 C2            -2.2739     1.7172     0.5900 C.ar    
   3 C3            -2.7488     0.8346    -0.3629 C.ar    
   4 C4            -1.8643     0.1019    -1.1331 C.ar    
   5 C5            -0.5030     0.2612    -0.9638 C.ar    
   6 C6            -0.9139     1.8775     0.7681 C.ar    
   7 C7             0.4602    -0.5289    -1.8118 C.3     
   8 N8             1.3545     1.3102     0.1668 N.pl3   
   9 C9             1.9708     2.4911    -0.2168 C.2     
  10 N10            3.2497     2.7065    -0.2038 N.2     
  11 S11            1.1388     3.9275    -0.8039 S.3     
  12 C12            2.6848     4.7524    -0.9880 C.2     
  13 C13            3.6624     3.9073    -0.6098 C.2     
  14 C14            5.0915     4.2835    -0.6443 C.2     
  15 O15            5.6023     5.4708    -1.0375 O.3     
  16 C16            6.9361     5.4012    -0.9166 C.2     
  17 N17            7.2611     4.2223    -0.4666 N.2     
  18 C18            6.1425     3.5040    -0.2813 C.2     
  19 C19            6.0670     2.0894     0.2326 C.3     
  20 C20            7.9035     6.5081    -1.2484 C.3     
  21 C21           -4.2337     0.6624    -0.5544 C.3     
  22 C22           -0.3973     2.8392     1.8070 C.3     
  23 H23           -2.9674     2.2882     1.1896 H       
  24 H24           -2.2384    -0.5868    -1.8761 H       
  25 H25            0.7636     0.0698    -2.6706 H       
  26 H26            1.3385    -0.7865    -1.2199 H       
  27 H27           -0.0249    -1.4415    -2.1583 H       
  28 H28            1.8789     0.5945     0.5587 H       
  29 H29            2.8246     5.7617    -1.3458 H       
  30 H30            6.1191     1.3949    -0.6059 H       
  31 H31            6.9004     1.9040     0.9102 H       
  32 H32            5.1268     1.9460     0.7652 H       
  33 H33            8.0676     7.1243    -0.3644 H       
  34 H34            8.8510     6.0775    -1.5723 H       
  35 H35            7.4915     7.1230    -2.0486 H       
  36 H36           -4.5888     1.3740    -1.2997 H       
  37 H37           -4.4409    -0.3526    -0.8935 H       
  38 H38           -4.7452     0.8411     0.3914 H       
  39 H39           -0.8195     3.8281     1.6285 H       
  40 H40           -0.6885     2.4935     2.7989 H       
  41 H41            0.6896     2.8915     1.7451 H       
@<TRIPOS>BOND
   1    1    6 ar
   2    1    8 1
   3    1    5 ar
   4    2    3 ar
   5    2    6 ar
   6    2   23 1
   7    3    4 ar
   8    3   21 1
   9    4    5 ar
  10    4   24 1
  11    5    7 1
  12    6   22 1
  13    7   25 1
  14    7   26 1
  15    7   27 1
  16    8    9 1
  17    8   28 1
  18    9   11 1
  19    9   10 2
  20   10   13 1
  21   11   12 1
  22   12   13 2
  23   12   29 1
  24   13   14 1
  25   14   15 1
  26   14   18 2
  27   15   16 1
  28   16   17 2
  29   16   20 1
  30   17   18 1
  31   18   19 1
  32   19   30 1
  33   19   31 1
  34   19   32 1
  35   20   33 1
  36   20   34 1
  37   20   35 1
  38   21   36 1
  39   21   37 1
  40   21   38 1
  41   22   39 1
  42   22   40 1
  43   22   41 1

#	End of record

