#	Name: ASD01200326
#	Creating user name:	WinNT
#	Creation time:	15. 06. 2019 19:08

#	Modifying user name:	WinNT
#	Modification time:	15. 06. 2019 19:08

#	Program:	/corina/corina34_cracker 3.40 0067  02.08.2006

@<TRIPOS>MOLECULE
ASD01200326
  33   35    0    0    0
SMALL
NO_CHARGES


@<TRIPOS>ATOM
   1 C1            -0.0149     1.2903    -0.0465 C.2     
   2 N2            -0.0033    -0.0268    -0.0781 N.2     
   3 C3             1.1264    -0.7327    -0.1190 C.2     
   4 C4             2.4494     0.0013    -0.1299 C.3     
   5 C5             2.4057     1.5151    -0.0930 C.2     
   6 C6             1.2025     2.0997    -0.0533 C.2     
   7 C7            -3.7652     3.2897     0.0637 C.ar    
   8 C8            -3.7243     1.8999     0.0295 C.ar    
   9 C9            -2.5038     1.2429    -0.0067 C.ar    
  10 C10           -1.3190     1.9816    -0.0086 C.ar    
  11 C11           -1.3720     3.3785     0.0259 C.ar    
  12 C12           -2.5919     4.0215     0.0618 C.ar    
  13 O13            1.0943    -1.9469    -0.1468 O.2     
  14 S14           -5.2234     0.9741     0.0321 S.3     
  15 C15           -5.5715     0.9504    -1.6950 C.2     
  16 N16           -4.8951     1.5856    -2.6234 N.2     
  17 C17           -5.4462     1.3370    -3.8228 C.2     
  18 C18           -6.4998     0.5218    -3.6435 C.2     
  19 N19           -6.5840     0.2656    -2.2940 N.pl3   
  20 C20           -7.5769    -0.5810    -1.6280 C.3     
  21 H21            3.0271    -0.3378     0.7300 H       
  22 H22            2.9895    -0.2960    -1.0288 H       
  23 H23            3.3128     2.1013    -0.0981 H       
  24 H24            1.1303     3.1770    -0.0262 H       
  25 H25           -4.7170     3.7995     0.0877 H       
  26 H26           -2.4697     0.1638    -0.0326 H       
  27 H27           -0.4581     3.9538     0.0249 H       
  28 H28           -2.6307     5.1004     0.0881 H       
  29 H29           -5.1018     1.7260    -4.7696 H       
  30 H30           -7.1532     0.1373    -4.4127 H       
  31 H31           -8.4406     0.0226    -1.3492 H       
  32 H32           -7.8916    -1.3742    -2.3061 H       
  33 H33           -7.1372    -1.0213    -0.7330 H       
@<TRIPOS>BOND
   1    1    2 2
   2    1    6 1
   3    1   10 1
   4    2    3 1
   5    3    4 1
   6    3   13 2
   7    4    5 1
   8    4   21 1
   9    4   22 1
  10    5    6 2
  11    5   23 1
  12    6   24 1
  13    7    8 ar
  14    7   12 ar
  15    7   25 1
  16    8    9 ar
  17    8   14 1
  18    9   10 ar
  19    9   26 1
  20   10   11 ar
  21   11   12 ar
  22   11   27 1
  23   12   28 1
  24   14   15 1
  25   15   16 2
  26   15   19 1
  27   16   17 1
  28   17   18 2
  29   17   29 1
  30   18   19 1
  31   18   30 1
  32   19   20 1
  33   20   31 1
  34   20   32 1
  35   20   33 1

#	End of record

