#	Name: ASD01911744
#	Creating user name:	WinNT
#	Creation time:	15. 06. 2019 19:58

#	Modifying user name:	WinNT
#	Modification time:	15. 06. 2019 19:58

#	Program:	/corina/corina34_cracker 3.40 0067  02.08.2006

@<TRIPOS>MOLECULE
ASD01911744
  41   43    0    0    0
SMALL
NO_CHARGES


@<TRIPOS>ATOM
   1 N1            -0.0082     1.2517    -0.4872 N.am    
   2 C2             0.0021    -0.0041     0.0020 C.2     
   3 C3            -1.2503    -0.7541     0.1205 C.2     
   4 C4            -1.3856    -2.1132     0.0310 C.2     
   5 S5            -2.8466    -0.0656     0.4109 S.3     
   6 C6            -3.5479    -1.6808     0.3759 C.2     
   7 N7            -2.6010    -2.5624     0.1683 N.2     
   8 C8            -4.9363    -1.9839     0.5521 C.1     
   9 C9            -6.0746    -2.2324     0.6965 C.1     
  10 C10           -7.4630    -2.5355     0.8726 C.ar    
  11 C11           -7.9052    -3.8609     0.8245 C.ar    
  12 O12            1.0522    -0.5149     0.3454 O.2     
  13 C13           -1.2434     1.8336    -1.0298 C.3     
  14 C14           -9.2434    -4.1452     0.9949 C.ar    
  15 C15          -10.1523    -3.1237     1.2136 C.ar    
  16 C16           -9.7288    -1.8088     1.2631 C.ar    
  17 C17           -8.3875    -1.5042     1.1004 C.ar    
  18 C18            1.2141     2.0670    -0.4825 C.3     
  19 C19            1.4702     2.5799    -1.9031 C.3     
  20 C20            0.2263     3.3150    -2.4077 C.3     
  21 C21           -0.9654     2.3486    -2.4455 C.3     
  22 O22           -7.9707    -0.2131     1.1488 O.3     
  23 C23           -8.9703     0.7835     1.3713 C.3     
  24 H24           -0.5439    -2.7675    -0.1417 H       
  25 H25           -7.1997    -4.6607     0.6538 H       
  26 H26           -2.0218     1.0715    -1.0645 H       
  27 H27           -1.5665     2.6603    -0.3971 H       
  28 H28           -9.5845    -5.1693     0.9573 H       
  29 H29          -11.1987    -3.3558     1.3460 H       
  30 H30          -10.4443    -1.0180     1.4338 H       
  31 H31            1.0870     2.9123     0.1938 H       
  32 H32            2.0577     1.4588    -0.1560 H       
  33 H33            2.3189     3.2638    -1.8956 H       
  34 H34            1.6868     1.7378    -2.5604 H       
  35 H35           -0.0042     4.1420    -1.7361 H       
  36 H36            0.4146     3.7022    -3.4091 H       
  37 H37           -0.7300     1.5060    -3.0956 H       
  38 H38           -1.8437     2.8690    -2.8273 H       
  39 H39           -9.4616     0.5984     2.3265 H       
  40 H40           -8.5040     1.7686     1.3875 H       
  41 H41           -9.7078     0.7437     0.5696 H       
@<TRIPOS>BOND
   1    1    2 am
   2    1   18 1
   3    1   13 1
   4    2    3 1
   5    2   12 2
   6    3    4 2
   7    3    5 1
   8    4    7 1
   9    4   24 1
  10    5    6 1
  11    6    7 2
  12    6    8 1
  13    8    9 3
  14    9   10 1
  15   10   11 ar
  16   10   17 ar
  17   11   14 ar
  18   11   25 1
  19   13   21 1
  20   13   26 1
  21   13   27 1
  22   14   15 ar
  23   14   28 1
  24   15   16 ar
  25   15   29 1
  26   16   17 ar
  27   16   30 1
  28   17   22 1
  29   18   19 1
  30   18   31 1
  31   18   32 1
  32   19   20 1
  33   19   33 1
  34   19   34 1
  35   20   21 1
  36   20   35 1
  37   20   36 1
  38   21   37 1
  39   21   38 1
  40   22   23 1
  41   23   39 1
  42   23   40 1
  43   23   41 1

#	End of record

