#	Name: ASD01912129
#	Creating user name:	WinNT
#	Creation time:	15. 06. 2019 19:59

#	Modifying user name:	WinNT
#	Modification time:	15. 06. 2019 19:59

#	Program:	/corina/corina34_cracker 3.40 0067  02.08.2006

@<TRIPOS>MOLECULE
ASD01912129
  43   46    0    0    0
SMALL
NO_CHARGES


@<TRIPOS>ATOM
   1 C1             0.0398     1.4211     0.1990 C.3     
   2 C2             0.0526    -0.1062     0.2951 C.3     
   3 C3            -1.3829    -0.6343     0.2444 C.3     
   4 C4            -2.1685    -0.0814     1.4376 C.3     
   5 N5            -2.0642     1.3842     1.4343 N.am    
   6 C6            -0.7297     1.9973     1.3917 C.3     
   7 C7            -4.5062     1.5238     1.4181 C.ar    
   8 C8            -3.1717     2.1515     1.4697 C.2     
   9 O9            -3.0711     3.3609     1.5441 O.2     
  10 C10            1.4553     1.9380     0.2164 C.2     
  11 O11            2.3521     1.7643     1.1922 O.3     
  12 N12            3.3967     2.3056     0.8975 N.2     
  13 C13            3.2923     2.8757    -0.2743 C.2     
  14 N14            2.0398     2.6373    -0.7243 N.2     
  15 C15            4.3527     3.6373    -0.9815 C.ar    
  16 C16            5.6026     3.7930    -0.3886 C.ar    
  17 C17            6.5822     4.5055    -1.0603 C.ar    
  18 C18            6.2774     5.0385    -2.3039 C.ar    
  19 C19            5.0139     4.8448    -2.8335 C.ar    
  20 N20            4.1029     4.1587    -2.1752 N.ar    
  21 C21           -4.8545     0.5389     2.3455 C.ar    
  22 C22           -6.1020    -0.0436     2.2931 C.ar    
  23 C23           -7.0132     0.3452     1.3222 C.ar    
  24 C24           -6.6760     1.3209     0.3983 C.ar    
  25 C25           -5.4304     1.9168     0.4435 C.ar    
  26 F26           -5.1014     2.8683    -0.4574 F       
  27 F27           -8.2346    -0.2305     1.2770 F       
  28 H28           -0.4465     1.7232    -0.7286 H       
  29 H29            0.6206    -0.5178    -0.5393 H       
  30 H30            0.5173    -0.4072     1.2340 H       
  31 H31           -1.8563    -0.3128    -0.6833 H       
  32 H32           -1.3717    -1.7233     0.2893 H       
  33 H33           -3.2153    -0.3734     1.3529 H       
  34 H34           -1.7510    -0.4753     2.3642 H       
  35 H35           -0.1948     1.7729     2.3145 H       
  36 H36           -0.8271     3.0768     1.2767 H       
  37 H37            5.8055     3.3645     0.5818 H       
  38 H38            7.5611     4.6432    -0.6254 H       
  39 H39            7.0188     5.5996    -2.8533 H       
  40 H40            4.7728     5.2587    -3.8015 H       
  41 H41           -4.1467     0.2342     3.1022 H       
  42 H42           -6.3711    -0.8053     3.0099 H       
  43 H43           -7.3893     1.6190    -0.3559 H       
@<TRIPOS>BOND
   1    1    2 1
   2    1   10 1
   3    1    6 1
   4    1   28 1
   5    2    3 1
   6    2   29 1
   7    2   30 1
   8    3    4 1
   9    3   31 1
  10    3   32 1
  11    4    5 1
  12    4   33 1
  13    4   34 1
  14    5    6 1
  15    5    8 am
  16    6   35 1
  17    6   36 1
  18    7    8 1
  19    7   21 ar
  20    7   25 ar
  21    8    9 2
  22   10   11 1
  23   10   14 2
  24   11   12 1
  25   12   13 2
  26   13   14 1
  27   13   15 1
  28   15   16 ar
  29   15   20 ar
  30   16   17 ar
  31   16   37 1
  32   17   18 ar
  33   17   38 1
  34   18   19 ar
  35   18   39 1
  36   19   20 ar
  37   19   40 1
  38   21   22 ar
  39   21   41 1
  40   22   23 ar
  41   22   42 1
  42   23   24 ar
  43   23   27 1
  44   24   25 ar
  45   24   43 1
  46   25   26 1

#	End of record

