#	Name: ASD01940433
#	Creating user name:	WinNT
#	Creation time:	15. 06. 2019 20:12

#	Modifying user name:	WinNT
#	Modification time:	15. 06. 2019 20:12

#	Program:	/corina/corina34_cracker 3.40 0067  02.08.2006

@<TRIPOS>MOLECULE
ASD01940433
  21   21    0    0    0
SMALL
NO_CHARGES


@<TRIPOS>ATOM
   1 C1            -0.0225     1.8097     0.0120 C.3     
   2 S2             0.0021    -0.0041     0.0020 S.o2    
   3 O3            -1.3056    -0.5216     0.2056 O.2     
   4 O4             0.8248    -0.4858    -1.0517 O.2     
   5 O5             0.7562    -0.3806     1.2693 O.3     
   6 F6             1.2900     2.2940     0.0021 F       
   7 F7            -0.6992     2.2732    -1.1214 F       
   8 F8            -0.6773     2.2609     1.1630 F       
   9 C9             0.0340    -0.2234     2.4097 C.ar    
  10 C10           -0.7345    -1.2713     2.8949 C.ar    
  11 C11           -1.4684    -1.1087     4.0563 C.ar    
  12 C12           -1.4353     0.0994     4.7332 C.ar    
  13 C13           -0.6696     1.1436     4.2499 C.ar    
  14 C14            0.0689     0.9833     3.0931 C.ar    
  15 N15           -2.2213     0.2724     5.9755 N.pl3   
  16 O16           -2.1927     1.3344     6.5713 O.2     
  17 O17           -2.8966    -0.6471     6.4019 O.2     
  18 F18           -2.2178    -2.1280     4.5301 F       
  19 H19           -0.7603    -2.2128     2.3665 H       
  20 H20           -0.6455     2.0848     4.7791 H       
  21 H21            0.6703     1.7986     2.7190 H       
@<TRIPOS>BOND
   1    1    2 1
   2    1    6 1
   3    1    7 1
   4    1    8 1
   5    2    3 2
   6    2    4 2
   7    2    5 1
   8    5    9 1
   9    9   10 ar
  10    9   14 ar
  11   10   11 ar
  12   10   19 1
  13   11   12 ar
  14   11   18 1
  15   12   13 ar
  16   12   15 1
  17   13   14 ar
  18   13   20 1
  19   14   21 1
  20   15   16 2
  21   15   17 2

#	End of record

