#	Name: ASD01883327
#	Creating user name:	WinNT
#	Creation time:	15. 06. 2019 19:46

#	Modifying user name:	WinNT
#	Modification time:	15. 06. 2019 19:46

#	Program:	/corina/corina34_cracker 3.40 0067  02.08.2006

@<TRIPOS>MOLECULE
ASD01883327
  49   50    0    0    0
SMALL
NO_CHARGES


@<TRIPOS>ATOM
   1 N1            -0.0162     1.3419     0.0115 N.am    
   2 C2            -0.0003    -0.0006    -0.0854 C.2     
   3 C3            -1.2183    -0.7226    -0.0812 C.2     
   4 C4            -2.4225    -0.0124     0.0251 C.2     
   5 C5            -2.3754     1.3878     0.1233 C.2     
   6 C6            -1.1834     2.0265     0.1199 C.2     
   7 O7             1.0610    -0.5939    -0.1771 O.2     
   8 C8            -1.2203    -2.1509    -0.1839 C.1     
   9 N9            -1.2218    -3.2840    -0.2654 N.1     
  10 O10           -3.6076    -0.6636     0.0325 O.3     
  11 C11           -4.3747    -0.6012     1.2366 C.3     
  12 C12            1.2506     2.0777     0.0060 C.3     
  13 C13            1.6256     2.4369    -1.4332 C.3     
  14 C14            2.9486     3.2053    -1.4390 C.3     
  15 C15            4.0714     2.2913    -0.9443 C.3     
  16 C16            3.2608     3.6724    -2.8620 C.3     
  17 C17           -5.6727    -1.3907     1.0558 C.3     
  18 O18           -5.3671    -2.7746     0.8736 O.3     
  19 C19           -6.5162    -3.6050     0.6948 C.3     
  20 C20           -6.0788    -5.0356     0.5128 C.ar    
  21 C21           -5.9399    -5.8612     1.6128 C.ar    
  22 C22           -5.5386    -7.1734     1.4458 C.ar    
  23 C23           -5.2767    -7.6602     0.1788 C.ar    
  24 C24           -5.4164    -6.8349    -0.9213 C.ar    
  25 C25           -5.8219    -5.5239    -0.7547 C.ar    
  26 H26           -3.2912     1.9543     0.2057 H       
  27 H27           -1.1600     3.1036     0.1963 H       
  28 H28           -3.7993    -1.0308     2.0566 H       
  29 H29           -4.6104     0.4385     1.4637 H       
  30 H30            1.1432     2.9904     0.5921 H       
  31 H31            2.0335     1.4565     0.4412 H       
  32 H32            1.7330     1.5241    -2.0192 H       
  33 H33            0.8427     3.0580    -1.8684 H       
  34 H34            2.8687     4.0711    -0.7816 H       
  35 H35            3.8489     1.9585     0.0696 H       
  36 H36            4.1513     1.4255    -1.6016 H       
  37 H37            5.0139     2.8388    -0.9484 H       
  38 H38            2.4609     4.3236    -3.2145 H       
  39 H39            4.2034     4.2199    -2.8661 H       
  40 H40            3.3407     2.8066    -3.5193 H       
  41 H41           -6.2976    -1.2700     1.9408 H       
  42 H42           -6.2058    -1.0181     0.1811 H       
  43 H43           -7.1586    -3.5303     1.5722 H       
  44 H44           -7.0668    -3.2784    -0.1874 H       
  45 H45           -6.1446    -5.4809     2.6027 H       
  46 H46           -5.4295    -7.8182     2.3053 H       
  47 H47           -4.9625    -8.6853     0.0484 H       
  48 H48           -5.2115    -7.2151    -1.9111 H       
  49 H49           -5.9311    -4.8791    -1.6142 H       
@<TRIPOS>BOND
   1    1    2 am
   2    1   12 1
   3    1    6 1
   4    2    3 1
   5    2    7 2
   6    3    4 2
   7    3    8 1
   8    4    5 1
   9    4   10 1
  10    5    6 2
  11    5   26 1
  12    6   27 1
  13    8    9 3
  14   10   11 1
  15   11   17 1
  16   11   28 1
  17   11   29 1
  18   12   13 1
  19   12   30 1
  20   12   31 1
  21   13   14 1
  22   13   32 1
  23   13   33 1
  24   14   15 1
  25   14   16 1
  26   14   34 1
  27   15   35 1
  28   15   36 1
  29   15   37 1
  30   16   38 1
  31   16   39 1
  32   16   40 1
  33   17   18 1
  34   17   41 1
  35   17   42 1
  36   18   19 1
  37   19   20 1
  38   19   43 1
  39   19   44 1
  40   20   21 ar
  41   20   25 ar
  42   21   22 ar
  43   21   45 1
  44   22   23 ar
  45   22   46 1
  46   23   24 ar
  47   23   47 1
  48   24   25 ar
  49   24   48 1
  50   25   49 1

#	End of record

