#	Name: ASD04880044
#	Creating user name:	WinNT
#	Creation time:	15. 06. 2019 20:52

#	Modifying user name:	WinNT
#	Modification time:	15. 06. 2019 20:52

#	Program:	/corina/corina34_cracker 3.40 0067  02.08.2006

@<TRIPOS>MOLECULE
ASD04880044
  41   43    0    0    0
SMALL
NO_CHARGES


@<TRIPOS>ATOM
   1 C1            -0.0144     1.2121     0.0087 C.2     
   2 O2            -0.1336     0.0021    -0.0227 O.2     
   3 C3             1.3320     1.8220     0.0264 C.ar    
   4 C4             2.4659     1.0142     0.1262 C.ar    
   5 C5             3.7214     1.5909     0.1417 C.ar    
   6 C6             3.8546     2.9679     0.0587 C.ar    
   7 C7             2.7337     3.7721    -0.0399 C.ar    
   8 C8             1.4749     3.2075    -0.0625 C.ar    
   9 F9             4.8206     0.8115     0.2382 F       
  10 N10           -1.1099     1.9971     0.0218 N.am    
  11 N11           -1.1116     3.3849     0.1459 N.2     
  12 C12           -2.2825     3.9132     0.1321 C.2     
  13 C13           -3.3255     2.8290    -0.0194 C.3     
  14 C14           -2.5001     1.5293    -0.0991 C.3     
  15 N15           -2.5482     5.2654     0.2396 N.pl3   
  16 C16           -3.9324     5.7445     0.2108 C.3     
  17 C17           -1.4457     6.2195     0.3825 C.3     
  18 C18           -0.9943     6.6735    -0.9817 C.ar    
  19 C19           -1.5736     7.7840    -1.5668 C.ar    
  20 C20           -1.1601     8.2015    -2.8176 C.ar    
  21 C21           -0.1653     7.5071    -3.4848 C.ar    
  22 C22            0.4142     6.3950    -2.8979 C.ar    
  23 C23            0.0028     5.9824    -1.6447 C.ar    
  24 F24            0.2394     7.9141    -4.7079 F       
  25 H25            2.3622    -0.0589     0.1916 H       
  26 H26            4.8377     3.4149     0.0715 H       
  27 H27            2.8442     4.8445    -0.1038 H       
  28 H28            0.6012     3.8371    -0.1441 H       
  29 H29           -3.9887     2.8128     0.8454 H       
  30 H30           -3.8957     2.9724    -0.9372 H       
  31 H31           -2.6557     1.0316    -1.0563 H       
  32 H32           -2.7544     0.8643     0.7262 H       
  33 H33           -4.3288     5.7715     1.2258 H       
  34 H34           -3.9612     6.7465    -0.2174 H       
  35 H35           -4.5371     5.0719    -0.3976 H       
  36 H36           -1.7831     7.0809     0.9589 H       
  37 H37           -0.6146     5.7395     0.8992 H       
  38 H38           -2.3498     8.3253    -1.0463 H       
  39 H39           -1.6130     9.0689    -3.2746 H       
  40 H40            1.1902     5.8526    -3.4174 H       
  41 H41            0.4574     5.1174    -1.1849 H       
@<TRIPOS>BOND
   1    1    2 2
   2    1    3 1
   3    1   10 am
   4    3    4 ar
   5    3    8 ar
   6    4    5 ar
   7    4   25 1
   8    5    6 ar
   9    5    9 1
  10    6    7 ar
  11    6   26 1
  12    7    8 ar
  13    7   27 1
  14    8   28 1
  15   10   11 1
  16   10   14 1
  17   11   12 2
  18   12   13 1
  19   12   15 1
  20   13   14 1
  21   13   29 1
  22   13   30 1
  23   14   31 1
  24   14   32 1
  25   15   16 1
  26   15   17 1
  27   16   33 1
  28   16   34 1
  29   16   35 1
  30   17   18 1
  31   17   36 1
  32   17   37 1
  33   18   19 ar
  34   18   23 ar
  35   19   20 ar
  36   19   38 1
  37   20   21 ar
  38   20   39 1
  39   21   22 ar
  40   21   24 1
  41   22   23 ar
  42   22   40 1
  43   23   41 1

#	End of record

