#	Name: ASD01915328
#	Creating user name:	WinNT
#	Creation time:	15. 06. 2019 20:05

#	Modifying user name:	WinNT
#	Modification time:	15. 06. 2019 20:05

#	Program:	/corina/corina34_cracker 3.40 0067  02.08.2006

@<TRIPOS>MOLECULE
ASD01915328
  35   37    0    0    0
SMALL
NO_CHARGES


@<TRIPOS>ATOM
   1 C1            -0.0046     1.3249    -0.0198 C.2     
   2 N2             0.0094    -0.0259    -0.0291 N.pl3   
   3 C3            -1.3056    -0.4567    -0.0126 C.2     
   4 C4            -2.0825     0.6209     0.0061 C.2     
   5 O5            -1.2940     1.7193     0.0061 O.3     
   6 N6             1.2473     1.7375    -0.0352 N.2     
   7 C7             2.0665     0.6884    -0.0541 C.2     
   8 N8             1.3555    -0.4113    -0.0512 N.2     
   9 C9            -3.5893     0.6192     0.0284 C.3     
  10 C10           -1.7723    -1.8896    -0.0158 C.3     
  11 C11           -4.0806     1.2195     1.3472 C.3     
  12 O12           -4.0906     1.4114    -1.0804 O.3     
  13 C13           -5.2813     1.0542    -1.5978 C.2     
  14 N14           -5.8036     1.7478    -2.6286 N.am    
  15 O15           -5.8850     0.1064    -1.1353 O.2     
  16 C16           -6.9842     1.3105    -3.2396 C.ar    
  17 C17           -7.8984     2.2344    -3.7274 C.ar    
  18 C18           -9.0635     1.7990    -4.3310 C.ar    
  19 C19           -9.3182     0.4440    -4.4487 C.ar    
  20 C20           -8.4089    -0.4779    -3.9634 C.ar    
  21 C21           -7.2409    -0.0488    -3.3643 C.ar    
  22 Cl22         -10.2080     2.9530    -4.9410 Cl      
  23 H23            3.1453     0.7365    -0.0694 H       
  24 H24           -3.9529    -0.4043    -0.0627 H       
  25 H25           -0.9077    -2.5532    -0.0329 H       
  26 H26           -2.3604    -2.0822     0.8815 H       
  27 H27           -2.3862    -2.0698    -0.8982 H       
  28 H28           -3.7170     2.2430     1.4383 H       
  29 H29           -5.1705     1.2182     1.3633 H       
  30 H30           -3.7043     0.6248     2.1796 H       
  31 H31           -5.3612     2.5502    -2.9469 H       
  32 H32           -7.6998     3.2920    -3.6352 H       
  33 H33          -10.2291     0.1057    -4.9201 H       
  34 H34           -8.6104    -1.5348    -4.0567 H       
  35 H35           -6.5313    -0.7697    -2.9859 H       
@<TRIPOS>BOND
   1    1    2 1
   2    1    6 2
   3    1    5 1
   4    2    3 1
   5    2    8 1
   6    3    4 2
   7    3   10 1
   8    4    5 1
   9    4    9 1
  10    6    7 1
  11    7    8 2
  12    7   23 1
  13    9   11 1
  14    9   12 1
  15    9   24 1
  16   10   25 1
  17   10   26 1
  18   10   27 1
  19   11   28 1
  20   11   29 1
  21   11   30 1
  22   12   13 1
  23   13   14 am
  24   13   15 2
  25   14   16 1
  26   14   31 1
  27   16   17 ar
  28   16   21 ar
  29   17   18 ar
  30   17   32 1
  31   18   19 ar
  32   18   22 1
  33   19   20 ar
  34   19   33 1
  35   20   21 ar
  36   20   34 1
  37   21   35 1

#	End of record

