#	Name: ASD03330596
#	Creating user name:	WinNT
#	Creation time:	15. 06. 2019 20:37

#	Modifying user name:	WinNT
#	Modification time:	15. 06. 2019 20:37

#	Program:	/corina/corina34_cracker 3.40 0067  02.08.2006

@<TRIPOS>MOLECULE
ASD03330596
  75   78    0    0    0
SMALL
NO_CHARGES


@<TRIPOS>ATOM
   1 C1             1.4182     1.4468    -0.3911 C.2     
   2 N2             1.4049     0.1463    -0.7859 N.pl3   
   3 C3             2.7194     1.7858    -0.1734 C.2     
   4 N4             3.4790     0.7041    -0.4518 N.2     
   5 C5             2.6992    -0.2827    -0.8257 C.2     
   6 C6             3.1487    -1.6351    -1.2240 C.ar    
   7 C7             3.2104     3.0979     0.2836 C.2     
   8 O8             2.4237     3.9992     0.5021 O.2     
   9 C9             5.0197     4.6035     0.9138 C.3     
  10 N10            4.5315     3.2991     0.4594 N.am    
  11 C11            4.9556     4.6683     2.4411 C.3     
  12 C12            5.7271     3.4878     3.0344 C.3     
  13 C13            5.5801     5.9794     2.9225 C.3     
  14 C14            3.4955     4.6025     2.8935 C.3     
  15 C15            6.4451     4.7914     0.4624 C.2     
  16 N16            6.9984     6.0203     0.4714 N.am    
  17 O17            7.0945     3.8367     0.0910 O.2     
  18 C18            8.3413     6.2231    -0.0781 C.3     
  19 C19            0.2046    -0.6363    -1.0932 C.3     
  20 C20           -0.7098     0.1847    -2.0078 C.3     
  21 C21           -1.6333     1.0579    -1.1646 C.3     
  22 N22           -0.9642     1.5042     0.0590 N.3     
  23 C23            0.2099     2.3352    -0.2466 C.3     
  24 C24           -1.8988     2.2172     0.9399 C.3     
  25 C25            4.8110    -3.0857    -2.1918 C.ar    
  26 C26            3.9763    -4.1820    -1.9653 C.ar    
  27 C27            2.7390    -4.0017    -1.3792 C.ar    
  28 C28            2.3213    -2.7391    -1.0083 C.ar    
  29 C29            4.3952    -1.8087    -1.8197 C.ar    
  30 C30            6.1355    -3.2800    -2.8199 C.2     
  31 O31            6.5092    -2.5251    -3.6962 O.2     
  32 N32            6.9283    -4.2942    -2.4207 N.am    
  33 C33            8.2919    -4.4444    -2.9530 C.3     
  34 C34            6.4580    -5.2806    -1.4352 C.3     
  35 C35            7.5152    -5.4036    -0.3319 C.3     
  36 O36            8.7895    -5.6591    -0.9276 O.3     
  37 C37            9.2561    -4.6099    -1.7728 C.3     
  38 H38            4.3975     5.3919     0.4903 H       
  39 H39            5.1590     2.5802     0.2852 H       
  40 H40            6.7673     3.5346     2.7121 H       
  41 H41            5.6815     3.5339     4.1225 H       
  42 H42            5.2822     2.5537     2.6914 H       
  43 H43            5.0255     6.8204     2.5064 H       
  44 H44            5.5419     6.0219     4.0110 H       
  45 H45            6.6179     6.0300     2.5932 H       
  46 H46            3.0506     3.6684     2.5505 H       
  47 H47            3.4499     4.6486     3.9816 H       
  48 H48            2.9459     5.4435     2.4708 H       
  49 H49            6.5075     6.7705     0.8416 H       
  50 H50            8.6176     7.2732     0.0161 H       
  51 H51            9.0550     5.6089     0.4709 H       
  52 H52            8.3503     5.9379    -1.1301 H       
  53 H53            0.4907    -1.5593    -1.5974 H       
  54 H54           -0.3223    -0.8732    -0.1689 H       
  55 H55           -0.1020     0.8182    -2.6539 H       
  56 H56           -1.3081    -0.4889    -2.6213 H       
  57 H57           -1.9319     1.9294    -1.7472 H       
  58 H58           -2.5218     0.4856    -0.8980 H       
  59 H59            0.3745     3.0455     0.5636 H       
  60 H60            0.0414     2.8756    -1.1781 H       
  61 H61           -2.7194     1.5535     1.2125 H       
  62 H62           -1.3760     2.5376     1.8411 H       
  63 H63           -2.2946     3.0896     0.4199 H       
  64 H64            4.2989    -5.1728    -2.2493 H       
  65 H65            2.0969    -4.8528    -1.2064 H       
  66 H66            1.3526    -2.6050    -0.5500 H       
  67 H67            5.0367    -0.9574    -1.9930 H       
  68 H68            8.3411    -5.3250    -3.5935 H       
  69 H69            8.5620    -3.5575    -3.5262 H       
  70 H70            5.5142    -4.9471    -1.0037 H       
  71 H71            6.3194    -6.2468    -1.9202 H       
  72 H72            7.5586    -4.4743     0.2360 H       
  73 H73            7.2529    -6.2260     0.3336 H       
  74 H74           10.2475    -4.8602    -2.1505 H       
  75 H75            9.3058    -3.6803    -1.2057 H       
@<TRIPOS>BOND
   1    1    2 1
   2    1    3 2
   3    1   23 1
   4    2   19 1
   5    2    5 1
   6    3    4 1
   7    3    7 1
   8    4    5 2
   9    5    6 1
  10    6   29 ar
  11    6   28 ar
  12    7    8 2
  13    7   10 am
  14    9   10 1
  15    9   11 1
  16    9   15 1
  17    9   38 1
  18   10   39 1
  19   11   12 1
  20   11   13 1
  21   11   14 1
  22   12   40 1
  23   12   41 1
  24   12   42 1
  25   13   43 1
  26   13   44 1
  27   13   45 1
  28   14   46 1
  29   14   47 1
  30   14   48 1
  31   15   16 am
  32   15   17 2
  33   16   18 1
  34   16   49 1
  35   18   50 1
  36   18   51 1
  37   18   52 1
  38   19   20 1
  39   19   53 1
  40   19   54 1
  41   20   21 1
  42   20   55 1
  43   20   56 1
  44   21   22 1
  45   21   57 1
  46   21   58 1
  47   22   23 1
  48   22   24 1
  49   23   59 1
  50   23   60 1
  51   24   61 1
  52   24   62 1
  53   24   63 1
  54   25   26 ar
  55   25   30 1
  56   25   29 ar
  57   26   27 ar
  58   26   64 1
  59   27   28 ar
  60   27   65 1
  61   28   66 1
  62   29   67 1
  63   30   31 2
  64   30   32 am
  65   32   33 1
  66   32   34 1
  67   33   37 1
  68   33   68 1
  69   33   69 1
  70   34   35 1
  71   34   70 1
  72   34   71 1
  73   35   36 1
  74   35   72 1
  75   35   73 1
  76   36   37 1
  77   37   74 1
  78   37   75 1

#	End of record

