#	Name: ASD01816898
#	Creating user name:	WinNT
#	Creation time:	15. 06. 2019 19:36

#	Modifying user name:	WinNT
#	Modification time:	15. 06. 2019 19:36

#	Program:	/corina/corina34_cracker 3.40 0067  02.08.2006

@<TRIPOS>MOLECULE
ASD01816898
  63   67    0    0    0
SMALL
NO_CHARGES


@<TRIPOS>ATOM
   1 C1            -0.0168     1.3897     0.0097 C.ar    
   2 C2             0.0021    -0.0041     0.0020 C.ar    
   3 C3             1.1796    -0.6877    -0.0129 C.ar    
   4 C4             2.3927     0.0187    -0.0207 C.ar    
   5 C5             2.3768     1.4381    -0.0130 C.ar    
   6 C6             1.1385     2.1078     0.0025 C.ar    
   7 C7             3.6297    -0.6529    -0.0357 C.ar    
   8 C8             4.7711     0.0956    -0.0422 C.ar    
   9 C9             4.6871     1.4959    -0.0340 C.ar    
  10 N10            3.5238     2.1168    -0.0199 N.ar    
  11 C11            5.9353     2.2963    -0.0412 C.2     
  12 N12            5.8725     3.6426    -0.0335 N.am    
  13 O13            7.0146     1.7386    -0.0541 O.2     
  14 C14            7.1057     4.4335    -0.0406 C.3     
  15 C15            6.8364     5.8081     0.5793 C.3     
  16 C16            3.6922    -2.1586    -0.0438 C.3     
  17 C17            3.5760    -2.6586    -1.4607 C.ar    
  18 C18            4.7072    -2.8403    -2.2316 C.ar    
  19 C19            2.3314    -2.9467    -2.0030 C.ar    
  20 C20            2.2696    -3.4036    -3.3082 C.ar    
  21 C21            3.4481    -3.5573    -4.0267 C.ar    
  22 N22            4.6164    -3.2771    -3.4732 N.ar    
  23 C23            8.1091     6.6549     0.4960 C.3     
  24 O24            8.5184     6.7643    -0.8688 O.3     
  25 C25            8.8293     5.5139    -1.4867 C.3     
  26 C26            7.5856     4.6212    -1.4831 C.3     
  27 O27            6.4575     5.6488     1.9479 O.3     
  28 O28            3.4011    -4.0047    -5.3067 O.3     
  29 C29            4.6474    -4.1415    -5.9924 C.3     
  30 C30            4.5451    -5.2722    -7.0206 C.3     
  31 C31            5.8576    -5.3594    -7.8039 C.3     
  32 O32            6.1220    -4.1019    -8.4293 O.3     
  33 C33            6.2745    -3.0155    -7.5136 C.3     
  34 C34            4.9788    -2.8342    -6.7186 C.3     
  35 H35           -0.9643     1.9080     0.0170 H       
  36 H36           -0.9302    -0.5493     0.0084 H       
  37 H37            1.1803    -1.7677    -0.0184 H       
  38 H38            1.1059     3.1873     0.0090 H       
  39 H39            5.7363    -0.3889    -0.0533 H       
  40 H40            5.0108     4.0879    -0.0231 H       
  41 H41            7.8732     3.9174     0.5362 H       
  42 H42            6.0333     6.3029     0.0332 H       
  43 H43            4.6418    -2.4851     0.3800 H       
  44 H44            2.8717    -2.5595     0.5513 H       
  45 H45            5.6785    -2.6218    -1.8129 H       
  46 H46            1.4315    -2.8178    -1.4198 H       
  47 H47            1.3178    -3.6377    -3.7615 H       
  48 H48            7.9112     7.6490     0.8970 H       
  49 H49            8.9004     6.1798     1.0758 H       
  50 H50            9.1503     5.6860    -2.5141 H       
  51 H51            9.6301     5.0239    -0.9328 H       
  52 H52            7.8324     3.6510    -1.9141 H       
  53 H53            6.7976     5.0921    -2.0708 H       
  54 H54            6.2715     6.4810     2.4039 H       
  55 H55            5.4350    -4.3713    -5.2748 H       
  56 H56            4.3641    -6.2164    -6.5069 H       
  57 H57            3.7240    -5.0669    -7.7074 H       
  58 H58            6.6721    -5.6047    -7.1223 H       
  59 H59            5.7753    -6.1342    -8.5661 H       
  60 H60            7.0945    -3.2302    -6.8282 H       
  61 H61            6.4926    -2.1019    -8.0666 H       
  62 H62            4.1665    -2.5796    -7.3993 H       
  63 H63            5.1080    -2.0348    -5.9890 H       
@<TRIPOS>BOND
   1    1    2 ar
   2    1    6 ar
   3    1   35 1
   4    2    3 ar
   5    2   36 1
   6    3    4 ar
   7    3   37 1
   8    4    5 ar
   9    4    7 ar
  10    5    6 ar
  11    5   10 ar
  12    6   38 1
  13    7    8 ar
  14    7   16 1
  15    8    9 ar
  16    8   39 1
  17    9   10 ar
  18    9   11 1
  19   11   12 am
  20   11   13 2
  21   12   14 1
  22   12   40 1
  23   14   15 1
  24   14   26 1
  25   14   41 1
  26   15   23 1
  27   15   27 1
  28   15   42 1
  29   16   17 1
  30   16   43 1
  31   16   44 1
  32   17   18 ar
  33   17   19 ar
  34   18   22 ar
  35   18   45 1
  36   19   20 ar
  37   19   46 1
  38   20   21 ar
  39   20   47 1
  40   21   22 ar
  41   21   28 1
  42   23   24 1
  43   23   48 1
  44   23   49 1
  45   24   25 1
  46   25   26 1
  47   25   50 1
  48   25   51 1
  49   26   52 1
  50   26   53 1
  51   27   54 1
  52   28   29 1
  53   29   30 1
  54   29   34 1
  55   29   55 1
  56   30   31 1
  57   30   56 1
  58   30   57 1
  59   31   32 1
  60   31   58 1
  61   31   59 1
  62   32   33 1
  63   33   34 1
  64   33   60 1
  65   33   61 1
  66   34   62 1
  67   34   63 1

#	End of record

