#	Name: ASD06660140
#	Creating user name:	WinNT
#	Creation time:	15. 06. 2019 21:08

#	Modifying user name:	WinNT
#	Modification time:	15. 06. 2019 21:08

#	Program:	/corina/corina34_cracker 3.40 0067  02.08.2006

@<TRIPOS>MOLECULE
ASD06660140
  84   89    0    0    0
SMALL
NO_CHARGES


@<TRIPOS>ATOM
   1 C1             0.2529     1.9413     1.0609 C.2     
   2 C2             0.0244     0.5467     0.5374 C.3     
   3 C3            -1.1120     0.5662    -0.4869 C.3     
   4 O4             1.3283     2.4726     0.9155 O.2     
   5 O5            -0.7401     2.5954     1.6838 O.3     
   6 C6             2.2745    -0.3809     0.6553 C.2     
   7 C7             3.5419    -0.7881     0.0164 C.ar    
   8 C8             3.7892    -2.1369    -0.2519 C.ar    
   9 C9             4.9721    -2.5129    -0.8482 C.ar    
  10 C10            5.9199    -1.5521    -1.1835 C.ar    
  11 C11            5.6774    -0.2093    -0.9177 C.ar    
  12 C12            4.4940     0.1748    -0.3266 C.ar    
  13 O13            2.1560    -0.4416     1.8638 O.2     
  14 N14            1.2491     0.0581    -0.1012 N.am    
  15 C15            4.2293     1.6314    -0.0449 C.3     
  16 C16            7.4938    -3.2050    -2.1078 C.2     
  17 N17            8.6770    -3.1635    -2.6565 N.2     
  18 C18            9.0986    -1.8910    -2.7091 C.2     
  19 C19            8.1430    -1.1086    -2.1733 C.2     
  20 N20            7.1201    -1.9378    -1.7891 N.pl3   
  21 C21            2.7629    -3.1789     0.1115 C.3     
  22 C22            1.7515    -3.3177    -1.0281 C.3     
  23 C23           -1.4289    -0.8443    -0.9124 C.ar    
  24 C24           -2.3488    -1.5900    -0.1983 C.ar    
  25 C25           -2.6416    -2.8829    -0.5855 C.ar    
  26 C26           -2.0110    -3.4341    -1.6937 C.ar    
  27 C27           -1.0874    -2.6822    -2.4088 C.ar    
  28 C28           -0.8035    -1.3879    -2.0194 C.ar    
  29 N29           -2.3044    -4.7416    -2.0878 N.3     
  30 C30           -1.5289    -5.1196    -3.2761 C.3     
  31 C31           -1.9803    -6.4981    -3.7642 C.3     
  32 C32           -1.7700    -7.5237    -2.6469 C.3     
  33 C33           -2.5493    -7.0814    -1.4053 C.3     
  34 C34           -2.0814    -5.6860    -0.9857 C.3     
  35 C35           -2.2758    -8.8923    -3.1073 C.3     
  36 N36           -1.9663    -9.8962    -2.0862 N.pl3   
  37 C37           -2.3286   -11.2124    -2.2811 C.2     
  38 N38           -2.9768   -11.6926    -3.3828 N.pl3   
  39 C39           -3.1553   -13.0533    -3.1938 C.ar    
  40 C40           -2.5887   -13.3516    -1.9434 C.ar    
  41 N41           -2.0971   -12.1889    -1.4397 N.2     
  42 C42           -2.6163   -14.6659    -1.4719 C.ar    
  43 C43           -3.1971   -15.6543    -2.2352 C.ar    
  44 C44           -3.7545   -15.3546    -3.4690 C.ar    
  45 C45           -3.7360   -14.0606    -3.9486 C.ar    
  46 H46           -0.2424    -0.1123     1.3636 H       
  47 H47           -1.9970     1.0182    -0.0391 H       
  48 H48           -0.8072     1.1483    -1.3566 H       
  49 H49           -0.5461     3.4876     2.0022 H       
  50 H50            5.1641    -3.5553    -1.0556 H       
  51 H51            6.4161     0.5341    -1.1787 H       
  52 H52            1.3219     0.0506    -1.0684 H       
  53 H53            4.6001     1.8825     0.9489 H       
  54 H54            4.7393     2.2438    -0.7885 H       
  55 H55            3.1570     1.8214    -0.0913 H       
  56 H56            6.9078    -4.0964    -1.9395 H       
  57 H57           10.0420    -1.5527    -3.1115 H       
  58 H58            8.1756    -0.0344    -2.0665 H       
  59 H59            3.2588    -4.1356     0.2757 H       
  60 H60            2.2453    -2.8770     1.0220 H       
  61 H61            0.9546    -3.9972    -0.7259 H       
  62 H62            1.3276    -2.3403    -1.2587 H       
  63 H63            2.2517    -3.7143    -1.9116 H       
  64 H64           -2.8385    -1.1610     0.6634 H       
  65 H65           -3.3599    -3.4650    -0.0271 H       
  66 H66           -0.5953    -3.1077    -3.2709 H       
  67 H67           -0.0891    -0.8011    -2.5778 H       
  68 H68           -1.6907    -4.3844    -4.0644 H       
  69 H69           -0.4693    -5.1531    -3.0228 H       
  70 H70           -3.0366    -6.4618    -4.0308 H       
  71 H71           -1.3937    -6.7852    -4.6369 H       
  72 H72           -0.7087    -7.5885    -2.4069 H       
  73 H73           -3.6145    -7.0543    -1.6348 H       
  74 H74           -2.3693    -7.7852    -0.5927 H       
  75 H75           -1.0192    -5.7168    -0.7431 H       
  76 H76           -2.6445    -5.3622    -0.1103 H       
  77 H77           -3.3543    -8.8489    -3.2590 H       
  78 H78           -1.7879    -9.1639    -4.0435 H       
  79 H79           -1.5065    -9.6350    -1.2730 H       
  80 H80           -3.2602   -11.1768    -4.1539 H       
  81 H81           -2.1834   -14.9065    -0.5122 H       
  82 H82           -3.2183   -16.6706    -1.8703 H       
  83 H83           -4.2067   -16.1387    -4.0582 H       
  84 H84           -4.1720   -13.8336    -4.9102 H       
@<TRIPOS>BOND
   1    1    2 1
   2    1    4 2
   3    1    5 1
   4    2    3 1
   5    2   14 1
   6    2   46 1
   7    3   23 1
   8    3   47 1
   9    3   48 1
  10    5   49 1
  11    6    7 1
  12    6   13 2
  13    6   14 am
  14    7    8 ar
  15    7   12 ar
  16    8    9 ar
  17    8   21 1
  18    9   10 ar
  19    9   50 1
  20   10   11 ar
  21   10   20 1
  22   11   12 ar
  23   11   51 1
  24   12   15 1
  25   14   52 1
  26   15   53 1
  27   15   54 1
  28   15   55 1
  29   16   17 2
  30   16   20 1
  31   16   56 1
  32   17   18 1
  33   18   19 2
  34   18   57 1
  35   19   20 1
  36   19   58 1
  37   21   22 1
  38   21   59 1
  39   21   60 1
  40   22   61 1
  41   22   62 1
  42   22   63 1
  43   23   24 ar
  44   23   28 ar
  45   24   25 ar
  46   24   64 1
  47   25   26 ar
  48   25   65 1
  49   26   27 ar
  50   26   29 1
  51   27   28 ar
  52   27   66 1
  53   28   67 1
  54   29   30 1
  55   29   34 1
  56   30   31 1
  57   30   68 1
  58   30   69 1
  59   31   32 1
  60   31   70 1
  61   31   71 1
  62   32   33 1
  63   32   35 1
  64   32   72 1
  65   33   34 1
  66   33   73 1
  67   33   74 1
  68   34   75 1
  69   34   76 1
  70   35   36 1
  71   35   77 1
  72   35   78 1
  73   36   37 1
  74   36   79 1
  75   37   38 1
  76   37   41 2
  77   38   39 1
  78   38   80 1
  79   39   40 ar
  80   39   45 ar
  81   40   41 1
  82   40   42 ar
  83   42   43 ar
  84   42   81 1
  85   43   44 ar
  86   43   82 1
  87   44   45 ar
  88   44   83 1
  89   45   84 1

#	End of record

