#	Name: ASD02560044
#	Creating user name:	WinNT
#	Creation time:	15. 06. 2019 20:24

#	Modifying user name:	WinNT
#	Modification time:	15. 06. 2019 20:24

#	Program:	/corina/corina34_cracker 3.40 0067  02.08.2006

@<TRIPOS>MOLECULE
ASD02560044
  40   43    0    0    0
SMALL
NO_CHARGES


@<TRIPOS>ATOM
   1 C1            -0.1254     1.2577    -0.0646 C.ar    
   2 C2            -0.0679    -0.1236    -0.0825 C.ar    
   3 C3             1.1571    -0.7629    -0.0804 C.ar    
   4 C4             2.3302    -0.0269    -0.0607 C.ar    
   5 C5             2.2767     1.3708    -0.0284 C.ar    
   6 C6             1.0373     2.0006    -0.0375 C.ar    
   7 O7             3.5247    -0.6370    -0.0967 O.3     
   8 C8             4.3856    -0.4720    -1.1955 C.3     
   9 C9             5.1898     0.7738    -1.1149 C.2     
  10 C10            4.6787     1.9359    -0.4899 C.2     
  11 N11            3.4312     2.1654     0.0335 N.pl3   
  12 C12            5.4341     3.0884    -0.2958 C.2     
  13 C13            4.6381     3.9850     0.4133 C.2     
  14 C14            3.4384     3.3963     0.6265 C.2     
  15 O15            6.3056     0.7957    -1.5941 O.2     
  16 C16            5.3215    -1.6514    -1.2610 C.ar    
  17 C17            3.5496    -0.4377    -2.4765 C.3     
  18 C18            5.6894    -2.3071    -0.1010 C.ar    
  19 C19            6.5479    -3.3888    -0.1610 C.ar    
  20 C20            7.0382    -3.8151    -1.3812 C.ar    
  21 C21            6.6696    -3.1600    -2.5413 C.ar    
  22 C22            5.8077    -2.0810    -2.4816 C.ar    
  23 C23            2.8323    -1.7775    -2.6534 C.3     
  24 H24           -1.0830     1.7568    -0.0763 H       
  25 H25           -0.9796    -0.7023    -0.0978 H       
  26 H26            1.2000    -1.8420    -0.0939 H       
  27 H27            0.9841     3.0792    -0.0229 H       
  28 H28            6.4470     3.2559    -0.6312 H       
  29 H29            4.9272     4.9744     0.7358 H       
  30 H30            2.6173     3.8303     1.1777 H       
  31 H31            2.8128     0.3627    -2.4081 H       
  32 H32            4.2019    -0.2591    -3.3313 H       
  33 H33            5.3063    -1.9740     0.8523 H       
  34 H34            6.8359    -3.9006     0.7453 H       
  35 H35            7.7095    -4.6599    -1.4280 H       
  36 H36            7.0530    -3.4929    -3.4945 H       
  37 H37            5.5197    -1.5691    -3.3880 H       
  38 H38            2.1483    -1.7144    -3.4997 H       
  39 H39            3.5670    -2.5614    -2.8377 H       
  40 H40            2.2707    -2.0112    -1.7490 H       
@<TRIPOS>BOND
   1    1    2 ar
   2    1    6 ar
   3    1   24 1
   4    2    3 ar
   5    2   25 1
   6    3    4 ar
   7    3   26 1
   8    4    5 ar
   9    4    7 1
  10    5    6 ar
  11    5   11 1
  12    6   27 1
  13    7    8 1
  14    8    9 1
  15    8   16 1
  16    8   17 1
  17    9   10 1
  18    9   15 2
  19   10   11 1
  20   10   12 2
  21   11   14 1
  22   12   13 1
  23   12   28 1
  24   13   14 2
  25   13   29 1
  26   14   30 1
  27   16   18 ar
  28   16   22 ar
  29   17   23 1
  30   17   31 1
  31   17   32 1
  32   18   19 ar
  33   18   33 1
  34   19   20 ar
  35   19   34 1
  36   20   21 ar
  37   20   35 1
  38   21   22 ar
  39   21   36 1
  40   22   37 1
  41   23   38 1
  42   23   39 1
  43   23   40 1

#	End of record

