#	Name: ASD01820177
#	Creating user name:	WinNT
#	Creation time:	15. 06. 2019 19:36

#	Modifying user name:	WinNT
#	Modification time:	15. 06. 2019 19:36

#	Program:	/corina/corina34_cracker 3.40 0067  02.08.2006

@<TRIPOS>MOLECULE
ASD01820177
 120  129    0    0    0
SMALL
NO_CHARGES


@<TRIPOS>ATOM
   1 C1            -0.0188     1.5345     0.0105 C.3     
   2 C2             0.0021    -0.0041     0.0020 C.3     
   3 C3            -0.6374    -0.3765     1.3223 C.2     
   4 N4            -0.9705     0.7414     1.9796 N.am    
   5 C5            -0.6687     1.8751     1.3343 C.2     
   6 C6            -1.6129     0.7255     3.2962 C.3     
   7 C7            -0.5402     0.7344     4.3872 C.3     
   8 C8            -1.2110     0.7178     5.7622 C.3     
   9 N9            -0.1810     0.7263     6.8096 N.4     
  10 C10           -0.8251     0.7103     8.1298 C.3     
  11 C11            0.2476     0.7192     9.2207 C.3     
  12 C12           -0.4232     0.7026    10.5957 C.3     
  13 C13            0.6495     0.7114    11.6866 C.3     
  14 C14           -0.0213     0.6948    13.0616 C.3     
  15 C15            1.0514     0.7036    14.1526 C.3     
  16 N16            0.4073     0.6877    15.4728 N.4     
  17 C17            1.4372     0.6962    16.5202 C.3     
  18 C18            0.7664     0.6796    17.8952 C.3     
  19 N19            1.1968     0.6725    20.3027 N.am    
  20 O20           -0.8816     2.9957     1.7449 O.2     
  21 O21           -0.8189    -1.5068     1.7211 O.2     
  22 C22            1.8391     0.6884    18.9861 C.3     
  23 C23            0.8946    -0.4611    20.9479 C.2     
  24 C24            0.2454    -0.1206    22.2721 C.3     
  25 C25            0.2227     1.4179    22.2796 C.3     
  26 C26            0.8688     1.7905    20.9625 C.2     
  27 O27            1.1064    -1.5817    20.5367 O.2     
  28 O28            1.0532     2.9208    20.5652 O.2     
  29 C29           -0.4462     1.8748    15.6156 C.3     
  30 C30           -0.4132    -0.5238    15.6027 C.3     
  31 C31            0.6724    -0.4608     6.6668 C.3     
  32 C32            0.6395     1.9378     6.6797 C.3     
  33 C33            1.4133     2.1102    -0.0001 C.3     
  34 C34            2.1106     1.4837     1.1971 C.ar    
  35 C35            2.1297     0.0907     1.1890 C.ar    
  36 C36            1.4493    -0.5406    -0.0154 C.3     
  37 C37            2.1058     0.1044    -1.2258 C.ar    
  38 C38            2.0870     1.4974    -1.2177 C.ar    
  39 C39            2.6839     2.1839     2.2199 C.ar    
  40 C40            3.2889     1.4825     3.2549 C.ar    
  41 C41            3.3081     0.1001     3.2464 C.ar    
  42 C42            2.7225    -0.6055     2.2032 C.ar    
  43 C43            2.6781    -0.5802    -2.2597 C.ar    
  44 C44            3.2441     0.1372    -3.3056 C.ar    
  45 C45            3.2257     1.5196    -3.2973 C.ar    
  46 C46            2.6409     2.2093    -2.2431 C.ar    
  47 C47           -1.1859    -0.6982    22.2843 C.3     
  48 C48           -1.8607    -0.0837    23.5006 C.ar    
  49 C49           -1.8817     1.3092    23.5059 C.ar    
  50 C50           -1.2251     1.9527    22.2947 C.3     
  51 C51           -1.9040     1.3182    21.0911 C.ar    
  52 C52           -1.8841    -0.0747    21.0859 C.ar    
  53 C53           -2.4130    -0.7942    24.5278 C.ar    
  54 C54           -2.9984    -0.1033    25.5809 C.ar    
  55 C55           -3.0202     1.2790    25.5855 C.ar    
  56 C56           -2.4558     1.9953    24.5378 C.ar    
  57 C57           -2.4959     2.0118    20.0744 C.ar    
  58 C58           -3.0801     1.3035    19.0322 C.ar    
  59 C59           -3.0612    -0.0789    19.0277 C.ar    
  60 C60           -2.4572    -0.7778    20.0649 C.ar    
  61 H61           -0.5978     1.9201    -0.8287 H       
  62 H62           -0.5757    -0.3962    -0.8350 H       
  63 H63           -2.2461     1.6063     3.4022 H       
  64 H64           -2.2217    -0.1734     3.3926 H       
  65 H65            0.0931    -0.1464     4.2812 H       
  66 H66            0.0687     1.6333     4.2908 H       
  67 H67           -1.8443     1.5986     5.8681 H       
  68 H68           -1.8198    -0.1812     5.8586 H       
  69 H69           -1.4584     1.5911     8.2358 H       
  70 H70           -1.4339    -0.1886     8.2262 H       
  71 H71            0.8809    -0.1616     9.1147 H       
  72 H72            0.8564     1.6181     9.1243 H       
  73 H73           -1.0565     1.5834    10.7017 H       
  74 H74           -1.0321    -0.1964    10.6921 H       
  75 H75            1.2828    -0.1694    11.5807 H       
  76 H76            1.2583     1.6104    11.5902 H       
  77 H77           -0.6546     1.5756    13.1676 H       
  78 H78           -0.6302    -0.2042    13.1580 H       
  79 H79            1.6847    -0.1772    14.0466 H       
  80 H80            1.6602     1.6026    14.0562 H       
  81 H81            2.0705    -0.1846    16.4142 H       
  82 H82            2.0461     1.5951    16.4238 H       
  83 H83            0.1332     1.5604    18.0012 H       
  84 H84            0.1576    -0.2194    17.9916 H       
  85 H85            2.4724    -0.1924    18.8801 H       
  86 H86            2.4480     1.5874    18.8897 H       
  87 H87            0.8345    -0.5049    23.1049 H       
  88 H88            0.7988     1.8112    23.1172 H       
  89 H89           -1.2104     1.8685    14.8384 H       
  90 H90           -0.9241     1.8629    16.5952 H       
  91 H91            0.1627     2.7737    15.5192 H       
  92 H92            0.2201    -1.4047    15.4967 H       
  93 H93           -0.8911    -0.5357    16.5822 H       
  94 H94           -1.1774    -0.5302    14.8255 H       
  95 H95            1.1503    -0.4490     5.6872 H       
  96 H96            1.4366    -0.4545     7.4440 H       
  97 H97            0.0636    -1.3598     6.7632 H       
  98 H98            0.0062     2.8186     6.7857 H       
  99 H99            1.4037     1.9441     7.4569 H       
 100 H100           1.1174     1.9496     5.7001 H       
 101 H101           1.4358     3.1999     0.0142 H       
 102 H102           1.5156    -1.6285    -0.0223 H       
 103 H103           2.6674     3.2638     2.2238 H       
 104 H104           3.7476     2.0204     4.0713 H       
 105 H105           3.7819    -0.4346     4.0563 H       
 106 H106           2.7358    -1.6854     2.1944 H       
 107 H107           2.6907    -1.6601    -2.2637 H       
 108 H108           3.7018    -0.3883    -4.1307 H       
 109 H109           3.6693     2.0668    -4.1160 H       
 110 H110           2.6241     3.2891    -2.2346 H       
 111 H111          -1.2069    -1.7879    22.2888 H       
 112 H112          -1.2783     3.0413    22.3076 H       
 113 H113          -2.3945    -1.8740    24.5216 H       
 114 H114          -3.4398    -0.6495    26.4014 H       
 115 H115          -3.4792     1.8055    26.4093 H       
 116 H116          -2.4712     3.0752    24.5389 H       
 117 H117          -2.5092     3.0917    20.0804 H       
 118 H118          -3.5525     1.8362    18.2201 H       
 119 H119          -3.5193    -0.6189    18.2122 H       
 120 H120          -2.4408    -1.8577    20.0639 H       
@<TRIPOS>BOND
   1    1    2 1
   2    1   33 1
   3    1    5 1
   4    1   61 1
   5    2    3 1
   6    2   36 1
   7    2   62 1
   8    3    4 am
   9    3   21 2
  10    4    5 am
  11    4    6 1
  12    5   20 2
  13    6    7 1
  14    6   63 1
  15    6   64 1
  16    7    8 1
  17    7   65 1
  18    7   66 1
  19    8    9 1
  20    8   67 1
  21    8   68 1
  22    9   10 1
  23    9   31 1
  24    9   32 1
  25   10   11 1
  26   10   69 1
  27   10   70 1
  28   11   12 1
  29   11   71 1
  30   11   72 1
  31   12   13 1
  32   12   73 1
  33   12   74 1
  34   13   14 1
  35   13   75 1
  36   13   76 1
  37   14   15 1
  38   14   77 1
  39   14   78 1
  40   15   16 1
  41   15   79 1
  42   15   80 1
  43   16   17 1
  44   16   29 1
  45   16   30 1
  46   17   18 1
  47   17   81 1
  48   17   82 1
  49   18   22 1
  50   18   83 1
  51   18   84 1
  52   19   23 am
  53   19   22 1
  54   19   26 am
  55   22   85 1
  56   22   86 1
  57   23   24 1
  58   23   27 2
  59   24   25 1
  60   24   47 1
  61   24   87 1
  62   25   26 1
  63   25   50 1
  64   25   88 1
  65   26   28 2
  66   29   89 1
  67   29   90 1
  68   29   91 1
  69   30   92 1
  70   30   93 1
  71   30   94 1
  72   31   95 1
  73   31   96 1
  74   31   97 1
  75   32   98 1
  76   32   99 1
  77   32  100 1
  78   33   34 1
  79   33   38 1
  80   33  101 1
  81   34   35 ar
  82   34   39 ar
  83   35   36 1
  84   35   42 ar
  85   36   37 1
  86   36  102 1
  87   37   38 ar
  88   37   43 ar
  89   38   46 ar
  90   39   40 ar
  91   39  103 1
  92   40   41 ar
  93   40  104 1
  94   41   42 ar
  95   41  105 1
  96   42  106 1
  97   43   44 ar
  98   43  107 1
  99   44   45 ar
 100   44  108 1
 101   45   46 ar
 102   45  109 1
 103   46  110 1
 104   47   48 1
 105   47   52 1
 106   47  111 1
 107   48   49 ar
 108   48   53 ar
 109   49   50 1
 110   49   56 ar
 111   50   51 1
 112   50  112 1
 113   51   52 ar
 114   51   57 ar
 115   52   60 ar
 116   53   54 ar
 117   53  113 1
 118   54   55 ar
 119   54  114 1
 120   55   56 ar
 121   55  115 1
 122   56  116 1
 123   57   58 ar
 124   57  117 1
 125   58   59 ar
 126   58  118 1
 127   59   60 ar
 128   59  119 1
 129   60  120 1

#	End of record

