#	Name: ASD01148672
#	Creating user name:	WinNT
#	Creation time:	15. 06. 2019 19:03

#	Modifying user name:	WinNT
#	Modification time:	15. 06. 2019 19:03

#	Program:	/corina/corina34_cracker 3.40 0067  02.08.2006

@<TRIPOS>MOLECULE
ASD01148672
  30   31    0    0    0
SMALL
NO_CHARGES


@<TRIPOS>ATOM
   1 O1            -0.0162     1.3421     0.0094 O.3     
   2 C2             0.0021    -0.0041     0.0020 C.2     
   3 C3             1.3218    -0.4897    -0.0132 C.2     
   4 C4             2.1877     0.5476    -0.0159 C.2     
   5 C5             1.3412     1.8012    -0.0011 C.3     
   6 O6            -0.9914    -0.7072     0.0077 O.2     
   7 N7             3.5516     0.4783    -0.0286 N.pl3   
   8 C8             4.3476     1.7082    -0.0292 C.3     
   9 C9             4.6378     2.1285     1.4131 C.3     
  10 F10            3.4315     2.3541     2.0847 F       
  11 F11            5.3493     1.1128     2.0607 F       
  12 C12            4.2187    -0.8260    -0.0417 C.3     
  13 C13            5.5958    -0.9268    -2.1350 C.ar    
  14 C14            4.4345    -1.2655    -1.4669 C.ar    
  15 C15            3.4705    -2.0152    -2.1238 C.ar    
  16 C16            3.7115    -2.3980    -3.4340 C.ar    
  17 C17            4.8977    -2.0219    -4.0387 C.ar    
  18 N18            5.7928    -1.3082    -3.3820 N.ar    
  19 Cl19           5.2124    -2.4944    -5.6792 Cl      
  20 H20            1.6008    -1.5330    -0.0211 H       
  21 H21            1.5317     2.3961    -0.8943 H       
  22 H22            1.5488     2.3865     0.8947 H       
  23 H23            5.2875     1.5324    -0.5525 H       
  24 H24            3.7933     2.4995    -0.5337 H       
  25 H25            5.2301     3.0436     1.4126 H       
  26 H26            5.1811    -0.7470     0.4639 H       
  27 H27            3.5964    -1.5575     0.4738 H       
  28 H28            6.3492    -0.3393    -1.6314 H       
  29 H29            2.5536    -2.2946    -1.6261 H       
  30 H30            2.9828    -2.9826    -3.9758 H       
@<TRIPOS>BOND
   1    1    2 1
   2    1    5 1
   3    2    3 1
   4    2    6 2
   5    3    4 2
   6    3   20 1
   7    4    5 1
   8    4    7 1
   9    5   21 1
  10    5   22 1
  11    7    8 1
  12    7   12 1
  13    8    9 1
  14    8   23 1
  15    8   24 1
  16    9   10 1
  17    9   11 1
  18    9   25 1
  19   12   14 1
  20   12   26 1
  21   12   27 1
  22   13   14 ar
  23   13   18 ar
  24   13   28 1
  25   14   15 ar
  26   15   16 ar
  27   15   29 1
  28   16   17 ar
  29   16   30 1
  30   17   18 ar
  31   17   19 1

#	End of record

