#	Name: ASD01940626
#	Creating user name:	WinNT
#	Creation time:	15. 06. 2019 20:12

#	Modifying user name:	WinNT
#	Modification time:	15. 06. 2019 20:12

#	Program:	/corina/corina34_cracker 3.40 0067  02.08.2006

@<TRIPOS>MOLECULE
ASD01940626
  46   48    0    0    0
SMALL
NO_CHARGES


@<TRIPOS>ATOM
   1 C1            -0.6634     1.6354    -0.8313 C.ar    
   2 C2            -0.8087     0.2650    -0.5649 C.ar    
   3 C3             0.2873    -0.4768    -0.1584 C.ar    
   4 C4             1.5255     0.1283    -0.0141 C.ar    
   5 C5             1.6812     1.4795    -0.2736 C.ar    
   6 C6             0.5964     2.2407    -0.6821 C.ar    
   7 N7             0.7542     3.5961    -0.9430 N.pl3   
   8 C8             1.8110     4.3025    -0.3586 C.ar    
   9 C9             2.4029     3.8318     0.8053 C.ar    
  10 C10            3.4465     4.5315     1.3804 C.ar    
  11 C11            3.9022     5.7002     0.7982 C.ar    
  12 C12            3.3153     6.1736    -0.3621 C.ar    
  13 C13            2.2747     5.4755    -0.9459 C.ar    
  14 F14            1.7052     5.9345    -2.0818 F       
  15 I15            5.4843     6.7569     1.6755 I       
  16 F16            2.5883    -0.6052     0.3831 F       
  17 C17           -1.8196     2.4309    -1.2692 C.2     
  18 O18           -2.5273     2.9797    -0.4459 O.2     
  19 N19           -2.0954     2.5522    -2.5829 N.am    
  20 O20           -2.0192    -0.3305    -0.7047 O.3     
  21 C21           -2.0927    -1.6768    -0.5275 C.ar    
  22 C22           -2.1629    -2.2086     0.7574 C.ar    
  23 C23           -2.2382    -3.5847     0.9320 C.ar    
  24 C24           -2.2432    -4.4215    -0.1700 C.ar    
  25 C25           -2.1734    -3.8909    -1.4452 C.ar    
  26 C26           -2.1036    -2.5223    -1.6259 C.ar    
  27 N27           -2.1571    -1.3583     1.8710 N.am    
  28 S28           -2.4724    -1.9664     3.3787 S.o2    
  29 N29           -1.2510    -3.0224     3.7466 N.am    
  30 O30           -2.3484    -0.8783     4.2842 O.2     
  31 O31           -3.6542    -2.7462     3.2578 O.2     
  32 F32           -2.3060    -4.1055     2.1767 F       
  33 H33            0.1768    -1.5313     0.0472 H       
  34 H34            2.6502     1.9419    -0.1574 H       
  35 H35            0.1317     4.0527    -1.5303 H       
  36 H36            2.0479     2.9194     1.2612 H       
  37 H37            3.9067     4.1653     2.2862 H       
  38 H38            3.6732     7.0868    -0.8141 H       
  39 H39           -1.5311     2.1147    -3.2394 H       
  40 H40           -2.8582     3.0771    -2.8718 H       
  41 H41           -2.3015    -5.4913    -0.0339 H       
  42 H42           -2.1777    -4.5477    -2.3025 H       
  43 H43           -2.0537    -2.1116    -2.6235 H       
  44 H44           -1.9684    -0.4135     1.7588 H       
  45 H45           -0.9851    -3.1537     4.6702 H       
  46 H46           -0.8014    -3.5097     3.0385 H       
@<TRIPOS>BOND
   1    1    2 ar
   2    1    6 ar
   3    1   17 1
   4    2    3 ar
   5    2   20 1
   6    3    4 ar
   7    3   33 1
   8    4    5 ar
   9    4   16 1
  10    5    6 ar
  11    5   34 1
  12    6    7 1
  13    7    8 1
  14    7   35 1
  15    8    9 ar
  16    8   13 ar
  17    9   10 ar
  18    9   36 1
  19   10   11 ar
  20   10   37 1
  21   11   12 ar
  22   11   15 1
  23   12   13 ar
  24   12   38 1
  25   13   14 1
  26   17   18 2
  27   17   19 am
  28   19   39 1
  29   19   40 1
  30   20   21 1
  31   21   22 ar
  32   21   26 ar
  33   22   23 ar
  34   22   27 1
  35   23   24 ar
  36   23   32 1
  37   24   25 ar
  38   24   41 1
  39   25   26 ar
  40   25   42 1
  41   26   43 1
  42   27   28 am
  43   27   44 1
  44   28   29 am
  45   28   30 2
  46   28   31 2
  47   29   45 1
  48   29   46 1

#	End of record

