#	Name: ASD03730766
#	Creating user name:	WinNT
#	Creation time:	15. 06. 2019 20:44

#	Modifying user name:	WinNT
#	Modification time:	15. 06. 2019 20:44

#	Program:	/corina/corina34_cracker 3.40 0067  02.08.2006

@<TRIPOS>MOLECULE
ASD03730766
  53   57    0    0    0
SMALL
NO_CHARGES


@<TRIPOS>ATOM
   1 O1            -0.0175     1.4360     0.0099 O.3     
   2 C2             0.0021    -0.0041     0.0020 C.3     
   3 C3             1.3451    -0.3166    -0.6717 C.3     
   4 C4             2.1592     0.9224    -0.4095 C.ar    
   5 C5             1.2616     1.9064     0.0003 C.ar    
   6 C6             1.7466     3.1672     0.3270 C.ar    
   7 C7             3.1072     3.4398     0.2354 C.ar    
   8 C8             3.9903     2.4473    -0.1847 C.ar    
   9 C9             3.5077     1.1936    -0.5048 C.ar    
  10 N10            2.1580    -2.4046    -1.1238 N.am    
  11 C11            1.9842    -1.5484    -0.0974 C.2     
  12 C12            1.1871    -0.5966    -2.1366 C.ar    
  13 C13            0.6762     0.1233    -3.1936 C.ar    
  14 C14            0.6687    -0.4227    -4.4648 C.ar    
  15 C15            1.1759    -1.6926    -4.6717 C.ar    
  16 C16            1.6888    -2.4177    -3.6164 C.ar    
  17 C17            1.7006    -1.8761    -2.3333 C.ar    
  18 O18            2.2849    -1.7359     1.0626 O.2     
  19 C19            2.7456     5.7895     1.0055 C.ar    
  20 C20            3.6186     4.7884     0.5846 C.ar    
  21 C21            4.9834     5.0747     0.4971 C.ar    
  22 C22            5.4102     6.3479     0.8345 C.ar    
  23 C23            4.4809     7.2866     1.2434 C.ar    
  24 N24            3.1983     6.9868     1.3162 N.ar    
  25 C25            2.7573    -3.7344    -0.9869 C.3     
  26 C26            1.6610    -4.7600    -0.6916 C.3     
  27 C27            2.2869    -6.1488    -0.5487 C.3     
  28 C28            1.1905    -7.1743    -0.2534 C.3     
  29 C29            1.8164    -8.5631    -0.1105 C.3     
  30 H30           -0.0214    -0.3968     1.0185 H       
  31 H31           -0.8266    -0.3989    -0.5857 H       
  32 H32            1.0642     3.9382     0.6529 H       
  33 H33            5.0470     2.6575    -0.2598 H       
  34 H34            4.1896     0.4219    -0.8302 H       
  35 H35            0.2806     1.1148    -3.0300 H       
  36 H36            0.2674     0.1415    -5.2937 H       
  37 H37            1.1700    -2.1187    -5.6641 H       
  38 H38            2.0826    -3.4090    -3.7856 H       
  39 H39            1.6877     5.5833     1.0734 H       
  40 H40            5.6875     4.3219     0.1749 H       
  41 H41            6.4577     6.6050     0.7793 H       
  42 H42            4.8104     8.2806     1.5077 H       
  43 H43            3.2645    -4.0015    -1.9140 H       
  44 H44            3.4770    -3.7261    -0.1684 H       
  45 H45            1.1538    -4.4929     0.2355 H       
  46 H46            0.9412    -4.7683    -1.5102 H       
  47 H47            2.7941    -6.4159    -1.4758 H       
  48 H48            3.0066    -6.1404     0.2698 H       
  49 H49            0.6833    -6.9072     0.6737 H       
  50 H50            0.4708    -7.1826    -1.0719 H       
  51 H51            2.3236    -8.8302    -1.0376 H       
  52 H52            2.5361    -8.5548     0.7081 H       
  53 H53            1.0354    -9.2937     0.0999 H       
@<TRIPOS>BOND
   1    1    2 1
   2    1    5 1
   3    2    3 1
   4    2   30 1
   5    2   31 1
   6    3    4 1
   7    3   11 1
   8    3   12 1
   9    4    5 ar
  10    4    9 ar
  11    5    6 ar
  12    6    7 ar
  13    6   32 1
  14    7    8 ar
  15    7   20 1
  16    8    9 ar
  17    8   33 1
  18    9   34 1
  19   10   11 am
  20   10   17 1
  21   10   25 1
  22   11   18 2
  23   12   13 ar
  24   12   17 ar
  25   13   14 ar
  26   13   35 1
  27   14   15 ar
  28   14   36 1
  29   15   16 ar
  30   15   37 1
  31   16   17 ar
  32   16   38 1
  33   19   20 ar
  34   19   24 ar
  35   19   39 1
  36   20   21 ar
  37   21   22 ar
  38   21   40 1
  39   22   23 ar
  40   22   41 1
  41   23   24 ar
  42   23   42 1
  43   25   26 1
  44   25   43 1
  45   25   44 1
  46   26   27 1
  47   26   45 1
  48   26   46 1
  49   27   28 1
  50   27   47 1
  51   27   48 1
  52   28   29 1
  53   28   49 1
  54   28   50 1
  55   29   51 1
  56   29   52 1
  57   29   53 1

#	End of record

