#	Name: ASD01880089
#	Creating user name:	WinNT
#	Creation time:	15. 06. 2019 19:40

#	Modifying user name:	WinNT
#	Modification time:	15. 06. 2019 19:40

#	Program:	/corina/corina34_cracker 3.40 0067  02.08.2006

@<TRIPOS>MOLECULE
ASD01880089
  48   49    0    0    0
SMALL
NO_CHARGES


@<TRIPOS>ATOM
   1 C1            -0.0167     1.3776     0.0096 C.ar    
   2 C2             0.0021    -0.0041     0.0020 C.ar    
   3 N3             1.1443    -0.6632    -0.0120 N.ar    
   4 C4             2.3054    -0.0383    -0.0197 C.ar    
   5 C5             2.3651     1.3426    -0.0133 C.ar    
   6 C6             1.1850     2.0698     0.0019 C.ar    
   7 C7             3.6964     2.0488    -0.0217 C.3     
   8 N8             4.1154     2.2846    -1.4056 N.am    
   9 C9             3.6624     3.4150    -2.0894 C.ar    
  10 S10            5.1261     1.2108    -2.1591 S.o2    
  11 C11            4.0114     0.0118    -2.9404 C.3     
  12 O12            5.7918     1.9885    -3.1445 O.2     
  13 O13            5.8466     0.6025    -1.0960 O.2     
  14 C14            3.2756     4.5457    -1.3834 C.ar    
  15 C15            2.8266     5.6656    -2.0658 C.ar    
  16 C16            2.7648     5.6540    -3.4521 C.ar    
  17 C17            3.1503     4.5273    -4.1536 C.ar    
  18 C18            3.6038     3.4113    -3.4779 C.ar    
  19 O19            2.4467     6.7741    -1.3775 O.3     
  20 C20            1.9946     7.8913    -2.1454 C.3     
  21 C21            1.6189     9.0187    -1.2187 C.2     
  22 O22            1.1640    10.1773    -1.7213 O.3     
  23 O23            1.7272     8.8798    -0.0234 O.2     
  24 C24            0.8214    11.2192    -0.7698 C.3     
  25 C25            0.3258    12.4551    -1.5234 C.3     
  26 C26            4.8281    -1.1555    -3.4983 C.3     
  27 F27            5.5251    -1.7769    -2.4565 F       
  28 F28            3.9684    -2.0802    -4.1009 F       
  29 F29            5.7375    -0.6769    -4.4475 F       
  30 H30           -0.9553     1.9117     0.0170 H       
  31 H31           -0.9295    -0.5505     0.0080 H       
  32 H32            3.2203    -0.6121    -0.0308 H       
  33 H33            1.2010     3.1496     0.0072 H       
  34 H34            3.6050     3.0027     0.4978 H       
  35 H35            4.4390     1.4303     0.4824 H       
  36 H36            3.3028    -0.3611    -2.2008 H       
  37 H37            3.4683     0.4960    -3.7521 H       
  38 H38            3.3241     4.5528    -0.3046 H       
  39 H39            2.4145     6.5266    -3.9835 H       
  40 H40            3.1008     4.5209    -5.2325 H       
  41 H41            3.9048     2.5323    -4.0284 H       
  42 H42            2.7913     8.2197    -2.8128 H       
  43 H43            1.1248     7.5995    -2.7339 H       
  44 H44            0.0360    10.8600    -0.1048 H       
  45 H45            1.7026    11.4801    -0.1837 H       
  46 H46            0.0686    13.2373    -0.8091 H       
  47 H47            1.1112    12.8143    -2.1884 H       
  48 H48           -0.5554    12.1942    -2.1095 H       
@<TRIPOS>BOND
   1    1    2 ar
   2    1    6 ar
   3    1   30 1
   4    2    3 ar
   5    2   31 1
   6    3    4 ar
   7    4    5 ar
   8    4   32 1
   9    5    6 ar
  10    5    7 1
  11    6   33 1
  12    7    8 1
  13    7   34 1
  14    7   35 1
  15    8    9 1
  16    8   10 am
  17    9   14 ar
  18    9   18 ar
  19   10   11 1
  20   10   12 2
  21   10   13 2
  22   11   26 1
  23   11   36 1
  24   11   37 1
  25   14   15 ar
  26   14   38 1
  27   15   16 ar
  28   15   19 1
  29   16   17 ar
  30   16   39 1
  31   17   18 ar
  32   17   40 1
  33   18   41 1
  34   19   20 1
  35   20   21 1
  36   20   42 1
  37   20   43 1
  38   21   22 1
  39   21   23 2
  40   22   24 1
  41   24   25 1
  42   24   44 1
  43   24   45 1
  44   25   46 1
  45   25   47 1
  46   25   48 1
  47   26   27 1
  48   26   28 1
  49   26   29 1

#	End of record

