#	Name: ASD03731862
#	Creating user name:	WinNT
#	Creation time:	15. 06. 2019 20:46

#	Modifying user name:	WinNT
#	Modification time:	15. 06. 2019 20:46

#	Program:	/corina/corina34_cracker 3.40 0067  02.08.2006

@<TRIPOS>MOLECULE
ASD03731862
  33   34    0    0    0
SMALL
NO_CHARGES


@<TRIPOS>ATOM
   1 C1            -0.1151     1.4100    -0.8509 C.2     
   2 C2            -0.0713    -0.0486    -0.6479 C.ar    
   3 C3            -1.2598    -0.7730    -0.5069 C.ar    
   4 C4            -1.2155    -2.1353    -0.3180 C.ar    
   5 C5             0.0118    -2.7950    -0.2667 C.ar    
   6 C6             1.1968    -2.0791    -0.4059 C.ar    
   7 C7             1.1604    -0.7145    -0.6014 C.ar    
   8 O8             0.9190     2.0383    -0.9733 O.2     
   9 N9            -1.3014     2.0473    -0.9065 N.am    
  10 S10           -1.3507     3.6868    -1.1347 S.o2    
  11 O11           -2.7361     4.0021    -1.1136 O.2     
  12 O12           -0.4665     4.2044    -0.1500 O.2     
  13 S13            0.0623    -4.5395    -0.0245 S.3     
  14 C14            1.7760    -4.9135    -0.1923 C.ar    
  15 C15            2.5904    -4.9644     0.9318 C.ar    
  16 C16            3.9342    -5.2585     0.7969 C.ar    
  17 C17            4.4681    -5.5018    -0.4576 C.ar    
  18 C18            3.6582    -5.4516    -1.5787 C.ar    
  19 C19            2.3140    -5.1639    -1.4490 C.ar    
  20 Cl20           6.1564    -5.8699    -0.6241 Cl      
  21 Cl21           4.9534    -5.3224     2.2008 Cl      
  22 F22            2.3107    -0.0202    -0.7426 F       
  23 Cl23          -2.6903    -3.0340    -0.1424 Cl      
  24 C24           -0.6670     3.9332    -2.7968 C.3     
  25 H25           -2.2112    -0.2635    -0.5460 H       
  26 H26            2.1457    -2.5933    -0.3654 H       
  27 H27           -2.1263     1.5457    -0.8129 H       
  28 H28            2.1742    -4.7739     1.9101 H       
  29 H29            4.0774    -5.6414    -2.5558 H       
  30 H30            1.6820    -5.1293    -2.3241 H       
  31 H31           -1.2809     3.4025    -3.5245 H       
  32 H32           -0.6615     4.9973    -3.0332 H       
  33 H33            0.3520     3.5480    -2.8313 H       
@<TRIPOS>BOND
   1    1    2 1
   2    1    8 2
   3    1    9 am
   4    2    3 ar
   5    2    7 ar
   6    3    4 ar
   7    3   25 1
   8    4    5 ar
   9    4   23 1
  10    5    6 ar
  11    5   13 1
  12    6    7 ar
  13    6   26 1
  14    7   22 1
  15    9   10 am
  16    9   27 1
  17   10   11 2
  18   10   12 2
  19   10   24 1
  20   13   14 1
  21   14   15 ar
  22   14   19 ar
  23   15   16 ar
  24   15   28 1
  25   16   17 ar
  26   16   21 1
  27   17   18 ar
  28   17   20 1
  29   18   19 ar
  30   18   29 1
  31   19   30 1
  32   24   31 1
  33   24   32 1
  34   24   33 1

#	End of record

