#	Name: ASD01913993
#	Creating user name:	WinNT
#	Creation time:	15. 06. 2019 20:02

#	Modifying user name:	WinNT
#	Modification time:	15. 06. 2019 20:02

#	Program:	/corina/corina34_cracker 3.40 0067  02.08.2006

@<TRIPOS>MOLECULE
ASD01913993
  47   48    0    0    0
SMALL
NO_CHARGES


@<TRIPOS>ATOM
   1 C1            -0.0167     1.3779     0.0096 C.ar    
   2 C2             0.0021    -0.0041     0.0020 C.ar    
   3 C3             1.2099    -0.6820    -0.0132 C.ar    
   4 C4             2.3995     0.0240    -0.0208 C.ar    
   5 C5             2.3810     1.4110    -0.0132 C.ar    
   6 C6             1.1694     2.0866     0.0021 C.ar    
   7 F7             1.2262    -2.0329    -0.0202 F       
   8 O8             3.5481     2.1071    -0.0202 O.3     
   9 C9             3.4532     3.5329    -0.0117 C.3     
  10 C10            4.8374     4.1286    -0.0212 C.ar    
  11 N11            4.9795     5.4402    -0.0155 N.ar    
  12 C12            6.1661     6.0113    -0.0233 C.ar    
  13 C13            7.3263     5.2366    -0.0386 C.ar    
  14 C14            7.2079     3.8414    -0.0450 C.ar    
  15 C15            5.9386     3.2910    -0.0302 C.ar    
  16 C16            8.6583     5.8780    -0.0484 C.2     
  17 N17            8.7592     7.2219    -0.0425 N.am    
  18 C18           10.0791     7.8575    -0.0522 C.3     
  19 O19            9.6625     5.1932    -0.0617 O.2     
  20 C20            9.9655     9.2598    -0.6537 C.3     
  21 C21            9.0016    10.0989     0.1875 C.3     
  22 C22           11.3440     9.9235    -0.6638 C.3     
  23 C23            9.4374     9.1591    -2.0861 C.3     
  24 C24           10.6072     7.9582     1.3802 C.3     
  25 H25           -0.9596     1.9044     0.0169 H       
  26 H26           -0.9262    -0.5561     0.0083 H       
  27 H27            3.3416    -0.5040    -0.0323 H       
  28 H28            1.1533     3.1665     0.0077 H       
  29 H29            2.9082     3.8661    -0.8949 H       
  30 H30            2.9246     3.8565     0.8850 H       
  31 H31            6.2417     7.0887    -0.0182 H       
  32 H32            8.0848     3.2111    -0.0568 H       
  33 H33            5.8086     2.2189    -0.0345 H       
  34 H34            7.9578     7.7684    -0.0319 H       
  35 H35           10.7658     7.2597    -0.6515 H       
  36 H36            9.3778    10.1706     1.2080 H       
  37 H37            8.9207    11.0979    -0.2410 H       
  38 H38            8.0195     9.6260     0.1947 H       
  39 H39           12.0307     9.3257    -1.2630 H       
  40 H40           11.2631    10.9225    -1.0923 H       
  41 H41           11.7203     9.9952     0.3567 H       
  42 H42            8.4554     8.6862    -2.0789 H       
  43 H43            9.3565    10.1581    -2.5146 H       
  44 H44           10.1242     8.5612    -2.6853 H       
  45 H45           10.6881     6.9592     1.8087 H       
  46 H46           11.5893     8.4310     1.3730 H       
  47 H47            9.9205     8.5560     1.9794 H       
@<TRIPOS>BOND
   1    1    2 ar
   2    1    6 ar
   3    1   25 1
   4    2    3 ar
   5    2   26 1
   6    3    4 ar
   7    3    7 1
   8    4    5 ar
   9    4   27 1
  10    5    6 ar
  11    5    8 1
  12    6   28 1
  13    8    9 1
  14    9   10 1
  15    9   29 1
  16    9   30 1
  17   10   11 ar
  18   10   15 ar
  19   11   12 ar
  20   12   13 ar
  21   12   31 1
  22   13   14 ar
  23   13   16 1
  24   14   15 ar
  25   14   32 1
  26   15   33 1
  27   16   17 am
  28   16   19 2
  29   17   18 1
  30   17   34 1
  31   18   20 1
  32   18   24 1
  33   18   35 1
  34   20   21 1
  35   20   22 1
  36   20   23 1
  37   21   36 1
  38   21   37 1
  39   21   38 1
  40   22   39 1
  41   22   40 1
  42   22   41 1
  43   23   42 1
  44   23   43 1
  45   23   44 1
  46   24   45 1
  47   24   46 1
  48   24   47 1

#	End of record

