#	Name: ASD01884230
#	Creating user name:	WinNT
#	Creation time:	15. 06. 2019 19:47

#	Modifying user name:	WinNT
#	Modification time:	15. 06. 2019 19:47

#	Program:	/corina/corina34_cracker 3.40 0067  02.08.2006

@<TRIPOS>MOLECULE
ASD01884230
  41   43    0    0    0
SMALL
NO_CHARGES


@<TRIPOS>ATOM
   1 C1            -0.0168     1.3907     0.0097 C.ar    
   2 C2             0.0021    -0.0041     0.0020 C.ar    
   3 C3            -1.1687    -0.7210     0.0088 C.ar    
   4 C4            -2.4131    -0.0704     0.0237 C.ar    
   5 C5            -2.4159     1.3263     0.0317 C.ar    
   6 C6            -1.2418     2.0534     0.0308 C.ar    
   7 N7            -3.6710    -0.6449     0.0317 N.am    
   8 C8            -4.7414     0.1550     0.0458 C.2     
   9 S9            -4.1168     1.8127     0.0497 S.3     
  10 C10            1.2525     2.1591     0.0017 C.ar    
  11 O11           -5.9097    -0.1864     0.0537 O.2     
  12 C12           -3.8271    -2.1015     0.0243 C.3     
  13 C13           -3.8683    -2.6173     1.4641 C.3     
  14 C14           -5.0495    -1.9816     2.2000 C.3     
  15 C15           -4.0313    -4.1386     1.4563 C.3     
  16 C16           -2.5653    -2.2476     2.1758 C.3     
  17 C17            1.2250     3.5531     0.0094 C.ar    
  18 C18            2.4052     4.2712     0.0020 C.ar    
  19 C19            3.6192     3.6148    -0.0132 C.ar    
  20 C20            3.6604     2.2183    -0.0215 C.ar    
  21 C21            2.4719     1.4896    -0.0078 C.ar    
  22 C22            4.9200     1.5373    -0.0378 C.1     
  23 N23            5.9193     0.9971    -0.0507 N.1     
  24 H24            0.9478    -0.5255    -0.0098 H       
  25 H25           -1.1321    -1.8004     0.0023 H       
  26 H26           -1.2734     3.1329     0.0371 H       
  27 H27           -4.7554    -2.3649    -0.4828 H       
  28 H28           -2.9856    -2.5544    -0.5000 H       
  29 H29           -5.9777    -2.2450     1.6930 H       
  30 H30           -5.0788    -2.3491     3.2258 H       
  31 H31           -4.9334    -0.8978     2.2055 H       
  32 H32           -3.1898    -4.5915     0.9321 H       
  33 H33           -4.0606    -4.5061     2.4821 H       
  34 H34           -4.9595    -4.4020     0.9493 H       
  35 H35           -2.4492    -1.1639     2.1813 H       
  36 H36           -2.5947    -2.6151     3.2015 H       
  37 H37           -1.7238    -2.7005     1.6515 H       
  38 H38            0.2784     4.0729     0.0210 H       
  39 H39            2.3778     5.3509     0.0077 H       
  40 H40            4.5385     4.1815    -0.0189 H       
  41 H41            2.4977     0.4099    -0.0141 H       
@<TRIPOS>BOND
   1    1    2 ar
   2    1   10 1
   3    1    6 ar
   4    2    3 ar
   5    2   24 1
   6    3    4 ar
   7    3   25 1
   8    4    5 ar
   9    4    7 1
  10    5    6 ar
  11    5    9 1
  12    6   26 1
  13    7    8 am
  14    7   12 1
  15    8    9 1
  16    8   11 2
  17   10   17 ar
  18   10   21 ar
  19   12   13 1
  20   12   27 1
  21   12   28 1
  22   13   14 1
  23   13   15 1
  24   13   16 1
  25   14   29 1
  26   14   30 1
  27   14   31 1
  28   15   32 1
  29   15   33 1
  30   15   34 1
  31   16   35 1
  32   16   36 1
  33   16   37 1
  34   17   18 ar
  35   17   38 1
  36   18   19 ar
  37   18   39 1
  38   19   20 ar
  39   19   40 1
  40   20   21 ar
  41   20   22 1
  42   21   41 1
  43   22   23 3

#	End of record

