#	Name: ASD01910473
#	Creating user name:	WinNT
#	Creation time:	15. 06. 2019 19:55

#	Modifying user name:	WinNT
#	Modification time:	15. 06. 2019 19:55

#	Program:	/corina/corina34_cracker 3.40 0067  02.08.2006

@<TRIPOS>MOLECULE
ASD01910473
  40   43    0    0    0
SMALL
NO_CHARGES


@<TRIPOS>ATOM
   1 C1            -0.8517     1.9315     1.0570 C.2     
   2 C2            -0.8684     0.4951     0.6908 C.2     
   3 N3            -1.8823    -0.3754     0.9002 N.2     
   4 C4            -1.4658    -1.5218     0.4234 C.2     
   5 O5            -0.2332    -1.3252    -0.0551 O.3     
   6 N6             0.0929    -0.1672     0.0993 N.2     
   7 C7            -2.2320    -2.8195     0.4162 C.3     
   8 C8            -2.4164    -3.2959    -1.0264 C.3     
   9 C9            -3.2228    -4.5965    -1.0369 C.3     
  10 C10           -2.4549    -5.6749    -0.2660 C.3     
  11 N11           -2.1467    -5.1667     1.0777 N.am    
  12 C12           -1.4529    -3.8777     1.2035 C.3     
  13 C13           -2.4938    -5.8696     2.1740 C.2     
  14 C14           -3.2644    -7.1222     2.0349 C.ar    
  15 O15           -2.1728    -5.4727     3.2774 O.2     
  16 C16           -2.8382    -8.1122     1.1470 C.ar    
  17 C17           -3.5607    -9.2793     1.0215 C.ar    
  18 C18           -4.7087    -9.4714     1.7749 C.ar    
  19 C19           -5.1367    -8.4915     2.6576 C.ar    
  20 C20           -4.4185    -7.3231     2.7952 C.ar    
  21 F21           -5.4132   -10.6172     1.6480 F       
  22 C22            0.2015     2.7390     0.8143 C.2     
  23 S23           -0.2038     4.3482     1.4059 S.3     
  24 C24           -1.7352     3.7886     1.9183 C.2     
  25 N25           -1.8725     2.5378     1.6468 N.2     
  26 H26           -3.2082    -2.6681     0.8769 H       
  27 H27           -2.9491    -2.5338    -1.5953 H       
  28 H28           -1.4401    -3.4702    -1.4788 H       
  29 H29           -4.1896    -4.4290    -0.5623 H       
  30 H30           -3.3737    -4.9228    -2.0659 H       
  31 H31           -3.0676    -6.5728    -0.1854 H       
  32 H32           -1.5279    -5.9084    -0.7898 H       
  33 H33           -0.4443    -3.9646     0.7996 H       
  34 H34           -1.4046    -3.5897     2.2537 H       
  35 H35           -1.9443    -7.9635     0.5594 H       
  36 H36           -3.2321   -10.0455     0.3348 H       
  37 H37           -6.0318    -8.6460     3.2418 H       
  38 H38           -4.7525    -6.5606     3.4833 H       
  39 H39            1.1287     2.4501     0.3418 H       
  40 H40           -2.4845     4.3999     2.3992 H       
@<TRIPOS>BOND
   1    1    2 1
   2    1   22 2
   3    1   25 1
   4    2    3 1
   5    2    6 2
   6    3    4 2
   7    4    5 1
   8    4    7 1
   9    5    6 1
  10    7    8 1
  11    7   12 1
  12    7   26 1
  13    8    9 1
  14    8   27 1
  15    8   28 1
  16    9   10 1
  17    9   29 1
  18    9   30 1
  19   10   11 1
  20   10   31 1
  21   10   32 1
  22   11   12 1
  23   11   13 am
  24   12   33 1
  25   12   34 1
  26   13   14 1
  27   13   15 2
  28   14   16 ar
  29   14   20 ar
  30   16   17 ar
  31   16   35 1
  32   17   18 ar
  33   17   36 1
  34   18   19 ar
  35   18   21 1
  36   19   20 ar
  37   19   37 1
  38   20   38 1
  39   22   23 1
  40   22   39 1
  41   23   24 1
  42   24   25 2
  43   24   40 1

#	End of record

