#	Name: ASD01411160
#	Creating user name:	WinNT
#	Creation time:	15. 06. 2019 19:19

#	Modifying user name:	WinNT
#	Modification time:	15. 06. 2019 19:19

#	Program:	/corina/corina34_cracker 3.40 0067  02.08.2006

@<TRIPOS>MOLECULE
ASD01411160
  83   87    0    0    0
SMALL
NO_CHARGES


@<TRIPOS>ATOM
   1 C1             0.1646     1.3228     0.1118 C.ar    
   2 C2            -1.0499     1.9580    -0.1349 C.ar    
   3 C3            -2.2250     1.2300    -0.1640 C.ar    
   4 C4            -2.2007    -0.1398     0.0524 C.ar    
   5 C5            -0.9791    -0.7851     0.3011 C.ar    
   6 C6             0.2047    -0.0415     0.3238 C.ar    
   7 O7             1.3154     2.0472     0.1385 O.3     
   8 C8             1.6143     2.7264     1.2742 C.ar    
   9 N9            -3.3857    -0.8734     0.0235 N.am    
  10 C10           -4.0177    -1.1784     1.1741 C.2     
  11 C11           -5.2348    -2.0668     1.1527 C.3     
  12 O12           -3.6070    -0.7378     2.2268 O.2     
  13 C13           -5.6344    -2.4190     2.5870 C.3     
  14 C14           -6.3894    -1.3336     0.4670 C.3     
  15 C15           -7.6251    -2.2356     0.4453 C.3     
  16 C16           -8.0247    -2.5879     1.8796 C.3     
  17 C17           -6.8700    -3.3210     2.5652 C.3     
  18 C18           -9.2603    -3.4899     1.8578 C.3     
  19 N19            0.8500     2.5819     2.3444 N.ar    
  20 C20           -3.9441    -1.3128    -1.2577 C.3     
  21 C21           -2.9058    -2.1514    -2.0057 C.3     
  22 C22           -4.3140    -0.0897    -2.0992 C.3     
  23 C23            2.7229     3.5627     1.3040 C.ar    
  24 C24            3.0168     4.2500     2.4690 C.ar    
  25 C25            2.1871     4.0754     3.5678 C.ar    
  26 C26            1.1048     3.2235     3.4686 C.ar    
  27 C27            2.4679     4.8031     4.8573 C.3     
  28 C28           -3.4889    -2.6104    -3.3437 C.3     
  29 C29           -3.8588    -1.3873    -4.1852 C.3     
  30 C30           -4.8971    -0.5487    -3.4372 C.3     
  31 O31           -4.4035    -1.8159    -5.4349 O.3     
  32 C32           -4.1644    -0.9105    -6.5143 C.3     
  33 F33           -1.0801     3.2920    -0.3464 F       
  34 N34            1.7747     6.0937     4.8506 N.pl3   
  35 N35            0.5805     6.2839     5.2884 N.2     
  36 C36            0.2712     7.5513     5.1326 C.2     
  37 C37            1.3910     8.1497     4.5504 C.2     
  38 N38            2.2795     7.1919     4.4112 N.2     
  39 C39            1.5496     9.5981     4.1658 C.3     
  40 C40            3.5944     3.7191     0.0846 C.3     
  41 F41            4.6370     4.6081     0.3674 F       
  42 F42            4.1261     2.4750    -0.2713 F       
  43 F43            2.8293     4.2195    -0.9744 F       
  44 C44           -0.9440    -2.2391     0.5318 C.2     
  45 O45           -1.9815    -2.8669     0.6112 O.2     
  46 O46            0.2387    -2.8735     0.6550 O.3     
  47 H47           -3.1636     1.7290    -0.3551 H       
  48 H48            1.1480    -0.5319     0.5142 H       
  49 H49           -5.0078    -2.9808     0.6039 H       
  50 H50           -4.8118    -2.9414     3.0755 H       
  51 H51           -5.8614    -1.5050     3.1358 H       
  52 H52           -6.6164    -0.4196     1.0158 H       
  53 H53           -6.1048    -1.0827    -0.5548 H       
  54 H54           -8.4477    -1.7133    -0.0432 H       
  55 H55           -7.3981    -3.1496    -0.1035 H       
  56 H56           -8.2517    -1.6739     2.4284 H       
  57 H57           -6.6430    -4.2350     2.0164 H       
  58 H58           -7.1547    -3.5720     3.5871 H       
  59 H59           -9.0333    -4.4039     1.3090 H       
  60 H60           -9.5450    -3.7408     2.8796 H       
  61 H61          -10.0829    -2.9676     1.3693 H       
  62 H62           -4.8357    -1.9137    -1.0785 H       
  63 H63           -2.0142    -1.5506    -2.1850 H       
  64 H64           -2.6423    -3.0228    -1.4063 H       
  65 H65           -5.0537     0.5077    -1.5663 H       
  66 H66           -3.4224     0.5111    -2.2784 H       
  67 H67            3.8724     4.9069     2.5218 H       
  68 H68            0.4559     3.0844     4.3207 H       
  69 H69            2.1136     4.2048     5.6967 H       
  70 H70            3.5409     4.9675     4.9555 H       
  71 H71           -2.7492    -3.2078    -3.8767 H       
  72 H72           -4.3805    -3.2112    -3.1645 H       
  73 H73           -2.9672    -0.7864    -4.3644 H       
  74 H74           -5.7887    -1.1495    -3.2580 H       
  75 H75           -5.1606     0.3227    -4.0367 H       
  76 H76           -4.6114     0.0564    -6.2833 H       
  77 H77           -3.0904    -0.7897    -6.6560 H       
  78 H78           -4.6089    -1.3076    -7.4269 H       
  79 H79           -0.6583     8.0318     5.3999 H       
  80 H80            1.9628    10.1543     5.0072 H       
  81 H81            2.2236     9.6758     3.3127 H       
  82 H82            0.5770    10.0118     3.8993 H       
  83 H83            0.2111    -3.8283     0.8056 H       
@<TRIPOS>BOND
   1    1    2 ar
   2    1    7 1
   3    1    6 ar
   4    2    3 ar
   5    2   33 1
   6    3    4 ar
   7    3   47 1
   8    4    5 ar
   9    4    9 1
  10    5    6 ar
  11    5   44 1
  12    6   48 1
  13    7    8 1
  14    8   23 ar
  15    8   19 ar
  16    9   10 am
  17    9   20 1
  18   10   11 1
  19   10   12 2
  20   11   13 1
  21   11   14 1
  22   11   49 1
  23   13   17 1
  24   13   50 1
  25   13   51 1
  26   14   15 1
  27   14   52 1
  28   14   53 1
  29   15   16 1
  30   15   54 1
  31   15   55 1
  32   16   17 1
  33   16   18 1
  34   16   56 1
  35   17   57 1
  36   17   58 1
  37   18   59 1
  38   18   60 1
  39   18   61 1
  40   19   26 ar
  41   20   21 1
  42   20   22 1
  43   20   62 1
  44   21   28 1
  45   21   63 1
  46   21   64 1
  47   22   30 1
  48   22   65 1
  49   22   66 1
  50   23   24 ar
  51   23   40 1
  52   24   25 ar
  53   24   67 1
  54   25   26 ar
  55   25   27 1
  56   26   68 1
  57   27   34 1
  58   27   69 1
  59   27   70 1
  60   28   29 1
  61   28   71 1
  62   28   72 1
  63   29   30 1
  64   29   31 1
  65   29   73 1
  66   30   74 1
  67   30   75 1
  68   31   32 1
  69   32   76 1
  70   32   77 1
  71   32   78 1
  72   34   35 1
  73   34   38 1
  74   35   36 2
  75   36   37 1
  76   36   79 1
  77   37   38 2
  78   37   39 1
  79   39   80 1
  80   39   81 1
  81   39   82 1
  82   40   41 1
  83   40   42 1
  84   40   43 1
  85   44   45 2
  86   44   46 1
  87   46   83 1

#	End of record

