#	Name: ASD05430006
#	Creating user name:	WinNT
#	Creation time:	15. 06. 2019 20:59

#	Modifying user name:	WinNT
#	Modification time:	15. 06. 2019 20:59

#	Program:	/corina/corina34_cracker 3.40 0067  02.08.2006

@<TRIPOS>MOLECULE
ASD05430006
  62   67    0    0    0
SMALL
NO_CHARGES


@<TRIPOS>ATOM
   1 C1            -0.0385     1.3234    -0.0250 C.ar    
   2 C2             0.0046     0.0709     0.5866 C.ar    
   3 C3            -1.1601    -0.5082     1.0737 C.ar    
   4 C4            -2.3636     0.1520     0.9550 C.ar    
   5 C5            -2.4144     1.4087     0.3433 C.ar    
   6 C6            -1.2412     1.9942    -0.1420 C.ar    
   7 C7            -4.8488    -0.0879    -0.1568 C.3     
   8 C8            -4.8395     1.4166     0.0631 C.2     
   9 C9            -3.6994     2.1154     0.2151 C.2     
  10 C10           -5.8830    -0.4076    -1.2430 C.3     
  11 C11           -7.3062     0.0104    -0.8548 C.3     
  12 N12           -7.2933     1.4046    -0.4205 N.pl3   
  13 C13           -6.1726     2.0584     0.0977 C.2     
  14 C14           -8.3723     2.3943    -0.4404 C.3     
  15 O15           -7.9037     3.4111     0.4701 O.3     
  16 N16           -6.5020     3.2071     0.5855 N.2     
  17 N17            1.2260    -0.6052     0.7095 N.pl3   
  18 C18            1.7355    -1.1662     1.8519 C.2     
  19 C19            2.9230    -1.7097     1.5235 C.2     
  20 N20            3.1376    -1.4896     0.2180 N.2     
  21 C21            2.1258    -0.8337    -0.2820 C.2     
  22 C22           -8.5489     2.9610    -1.8255 C.ar    
  23 C23           -8.1807     2.2145    -2.9293 C.ar    
  24 C24           -9.0843     4.2247    -1.9917 C.ar    
  25 C25           -9.2475     4.7450    -3.2615 C.ar    
  26 C26           -8.8742     4.0004    -4.3675 C.ar    
  27 C27           -8.3426     2.7329    -4.2001 C.ar    
  28 F28           -9.0334     4.5081    -5.6094 F       
  29 C29           -9.6792     1.7787     0.0636 C.3     
  30 O30            1.1034     1.8871    -0.5011 O.3     
  31 C31            3.8509    -2.4386     2.4610 C.3     
  32 C32            0.9853     3.1718    -1.1157 C.3     
  33 C33           -5.4694     0.0911    -2.6288 C.3     
  34 S34           -6.3328    -1.3125    -3.3878 S.3     
  35 C35           -5.7988    -1.8523    -1.7401 C.3     
  36 H36           -1.1223    -1.4786     1.5464 H       
  37 H37           -3.2677    -0.3010     1.3341 H       
  38 H38           -1.2760     2.9646    -0.6148 H       
  39 H39           -3.8617    -0.4182    -0.4803 H       
  40 H40           -5.1207    -0.5932     0.7699 H       
  41 H41           -3.7272     3.1947     0.2430 H       
  42 H42           -7.9653    -0.0969    -1.7163 H       
  43 H43           -7.6624    -0.6215    -0.0411 H       
  44 H44            1.2734    -1.1709     2.8281 H       
  45 H45            2.0242    -0.5195    -1.3103 H       
  46 H46           -7.7660     1.2259    -2.7985 H       
  47 H47           -9.3754     4.8053    -1.1289 H       
  48 H48           -9.6665     5.7320    -3.3912 H       
  49 H49           -8.0507     2.1513    -5.0620 H       
  50 H50           -9.5439     1.4253     1.0858 H       
  51 H51          -10.4677     2.5309     0.0406 H       
  52 H52           -9.9570     0.9414    -0.5766 H       
  53 H53            3.6064    -3.5008     2.4612 H       
  54 H54            4.8809    -2.3029     2.1311 H       
  55 H55            3.7365    -2.0392     3.4687 H       
  56 H56            0.3129     3.1051    -1.9710 H       
  57 H57            0.5857     3.8844    -0.3941 H       
  58 H58            1.9673     3.5060    -1.4507 H       
  59 H59           -5.9090     1.0547    -2.8863 H       
  60 H60           -4.3914     0.0680    -2.7883 H       
  61 H61           -4.7845    -2.2512    -1.7278 H       
  62 H62           -6.5142    -2.5153    -1.2536 H       
@<TRIPOS>BOND
   1    1    2 ar
   2    1   30 1
   3    1    6 ar
   4    2    3 ar
   5    2   17 1
   6    3    4 ar
   7    3   36 1
   8    4    5 ar
   9    4   37 1
  10    5    6 ar
  11    5    9 1
  12    6   38 1
  13    7    8 1
  14    7   10 1
  15    7   39 1
  16    7   40 1
  17    8    9 2
  18    8   13 1
  19    9   41 1
  20   10   11 1
  21   10   33 1
  22   10   35 1
  23   11   12 1
  24   11   42 1
  25   11   43 1
  26   12   13 1
  27   12   14 1
  28   13   16 2
  29   14   15 1
  30   14   22 1
  31   14   29 1
  32   15   16 1
  33   17   18 1
  34   17   21 1
  35   18   19 2
  36   18   44 1
  37   19   20 1
  38   19   31 1
  39   20   21 2
  40   21   45 1
  41   22   23 ar
  42   22   24 ar
  43   23   27 ar
  44   23   46 1
  45   24   25 ar
  46   24   47 1
  47   25   26 ar
  48   25   48 1
  49   26   27 ar
  50   26   28 1
  51   27   49 1
  52   29   50 1
  53   29   51 1
  54   29   52 1
  55   30   32 1
  56   31   53 1
  57   31   54 1
  58   31   55 1
  59   32   56 1
  60   32   57 1
  61   32   58 1
  62   33   34 1
  63   33   59 1
  64   33   60 1
  65   34   35 1
  66   35   61 1
  67   35   62 1

#	End of record

