#	Name: ASD03730279
#	Creating user name:	WinNT
#	Creation time:	15. 06. 2019 20:44

#	Modifying user name:	WinNT
#	Modification time:	15. 06. 2019 20:44

#	Program:	/corina/corina34_cracker 3.40 0067  02.08.2006

@<TRIPOS>MOLECULE
ASD03730279
  60   65    0    0    0
SMALL
NO_CHARGES


@<TRIPOS>ATOM
   1 O1            -0.4553     1.1429     1.2792 O.3     
   2 C2            -0.3871    -0.2935     1.3509 C.3     
   3 O3             0.6980    -0.6288     0.4660 O.3     
   4 C4             1.5184     0.4629     0.4634 C.ar    
   5 C5             0.8082     1.5524     0.9625 C.ar    
   6 C6             2.8356     0.6172     0.0705 C.ar    
   7 C7             3.4602     1.8567     0.1691 C.ar    
   8 C8             2.7381     2.9398     0.6613 C.ar    
   9 C9             1.4263     2.7877     1.0590 C.ar    
  10 O10            4.7389     2.2155    -0.1408 O.3     
  11 C11            3.6630     4.1266     0.6198 C.3     
  12 C12            4.8098     3.6475    -0.2807 C.3     
  13 N13            3.0939     6.3044     1.0139 N.am    
  14 C14            2.9920     5.3509     0.0665 C.2     
  15 C15            4.1487     4.5215     1.9825 C.ar    
  16 C16            4.8368     3.8541     2.9863 C.ar    
  17 C17            5.1500     4.5181     4.1718 C.ar    
  18 C18            4.7725     5.8359     4.3384 C.ar    
  19 C19            4.0877     6.4987     3.3402 C.ar    
  20 C20            3.7686     5.8484     2.1495 C.ar    
  21 O21            2.4631     5.4605    -1.0194 O.2     
  22 C22            2.5594     7.6607     0.8699 C.3     
  23 C23            1.1213     7.7002     1.3906 C.3     
  24 C24            0.5631     9.1168     1.2401 C.3     
  25 C25           -0.8751     9.1562     1.7609 C.3     
  26 C26           -1.4332    10.5728     1.6104 C.3     
  27 C27            5.2385     2.4379     2.7983 C.ar    
  28 C28            6.1332     2.0932     1.7873 C.ar    
  29 C29            6.5037     0.7746     1.6172 C.ar    
  30 C30            5.9882    -0.2040     2.4478 C.ar    
  31 C31            5.0993     0.1326     3.4527 C.ar    
  32 C32            4.7267     1.4489     3.6357 C.ar    
  33 C33            6.3961    -1.6421     2.2568 C.3     
  34 H34           -0.1652    -0.6161     2.3682 H       
  35 H35           -1.3183    -0.7392     1.0012 H       
  36 H36            3.3831    -0.2301    -0.3151 H       
  37 H37            0.8793     3.6347     1.4460 H       
  38 H38            5.7674     4.0246     0.0784 H       
  39 H39            4.6392     3.9442    -1.3156 H       
  40 H40            5.6852     4.0040     4.9563 H       
  41 H41            5.0145     6.3512     5.2561 H       
  42 H42            3.7973     7.5291     3.4827 H       
  43 H43            3.1727     8.3557     1.4434 H       
  44 H44            2.5730     7.9468    -0.1818 H       
  45 H45            0.5080     7.0052     0.8171 H       
  46 H46            1.1077     7.4141     2.4423 H       
  47 H47            1.1764     9.8118     1.8137 H       
  48 H48            0.5767     9.4028     0.1884 H       
  49 H49           -1.4883     8.4612     1.1873 H       
  50 H50           -0.8886     8.8702     2.8126 H       
  51 H51           -1.4197    10.8589     0.5587 H       
  52 H52           -2.4578    10.6009     1.9814 H       
  53 H53           -0.8200    11.2678     2.1839 H       
  54 H54            6.5357     2.8564     1.1377 H       
  55 H55            7.1971     0.5063     0.8339 H       
  56 H56            4.6992    -0.6356     4.0980 H       
  57 H57            4.0360     1.7111     4.4235 H       
  58 H58            7.2798    -1.8521     2.8593 H       
  59 H59            5.5808    -2.2953     2.5677 H       
  60 H60            6.6226    -1.8190     1.2054 H       
@<TRIPOS>BOND
   1    1    2 1
   2    1    5 1
   3    2    3 1
   4    2   34 1
   5    2   35 1
   6    3    4 1
   7    4    5 ar
   8    4    6 ar
   9    5    9 ar
  10    6    7 ar
  11    6   36 1
  12    7    8 ar
  13    7   10 1
  14    8    9 ar
  15    8   11 1
  16    9   37 1
  17   10   12 1
  18   11   12 1
  19   11   14 1
  20   11   15 1
  21   12   38 1
  22   12   39 1
  23   13   14 am
  24   13   20 1
  25   13   22 1
  26   14   21 2
  27   15   16 ar
  28   15   20 ar
  29   16   17 ar
  30   16   27 1
  31   17   18 ar
  32   17   40 1
  33   18   19 ar
  34   18   41 1
  35   19   20 ar
  36   19   42 1
  37   22   23 1
  38   22   43 1
  39   22   44 1
  40   23   24 1
  41   23   45 1
  42   23   46 1
  43   24   25 1
  44   24   47 1
  45   24   48 1
  46   25   26 1
  47   25   49 1
  48   25   50 1
  49   26   51 1
  50   26   52 1
  51   26   53 1
  52   27   28 ar
  53   27   32 ar
  54   28   29 ar
  55   28   54 1
  56   29   30 ar
  57   29   55 1
  58   30   31 ar
  59   30   33 1
  60   31   32 ar
  61   31   56 1
  62   32   57 1
  63   33   58 1
  64   33   59 1
  65   33   60 1

#	End of record

