#	Name: ASD01148770
#	Creating user name:	WinNT
#	Creation time:	15. 06. 2019 19:03

#	Modifying user name:	WinNT
#	Modification time:	15. 06. 2019 19:03

#	Program:	/corina/corina34_cracker 3.40 0067  02.08.2006

@<TRIPOS>MOLECULE
ASD01148770
  51   53    0    0    0
SMALL
NO_CHARGES


@<TRIPOS>ATOM
   1 N1            -0.0154     1.3412     0.0829 N.pl3   
   2 C2             0.0020     0.0056    -0.1102 C.2     
   3 C3             1.3174    -0.4068    -0.1564 C.2     
   4 C4             2.1210     0.7503     0.0193 C.2     
   5 C5             1.2773     1.8039     0.1631 C.2     
   6 C6             1.7968    -1.7844    -0.3502 C.2     
   7 O7             0.9996    -2.6915    -0.4889 O.2     
   8 O8             3.1199    -2.0406    -0.3738 O.3     
   9 C9             1.6801     3.2117     0.3706 C.ar    
  10 C10            0.7831     4.1219     0.9313 C.ar    
  11 C11            1.1651     5.4338     1.1221 C.ar    
  12 C12            2.4342     5.8478     0.7585 C.ar    
  13 C13            3.3282     4.9505     0.2020 C.ar    
  14 C14            2.9608     3.6343     0.0117 C.ar    
  15 C15           -1.2075    -0.8823    -0.2511 C.3     
  16 C16           -1.1679     2.1320     0.1802 C.ar    
  17 C17           -2.0092     2.0037     1.2776 C.ar    
  18 C18           -3.1443     2.7845     1.3706 C.ar    
  19 C19           -3.4439     3.6934     0.3721 C.ar    
  20 C20           -2.6083     3.8235    -0.7216 C.ar    
  21 C21           -1.4680     3.0496    -0.8174 C.ar    
  22 S22           -4.2125     2.6224     2.7626 S.o2    
  23 O23           -5.4827     3.0380     2.2799 O.2     
  24 O24           -3.9999     1.2920     3.2143 O.2     
  25 C25           -3.5685     3.8147     3.9686 C.3     
  26 C26           -4.4224     3.7685     5.2373 C.3     
  27 C27            3.5204    -3.4225    -0.5690 C.3     
  28 C28            5.0476    -3.5160    -0.5671 C.3     
  29 H29            3.2003     0.7856     0.0354 H       
  30 H30           -0.2080     3.8001     1.2150 H       
  31 H31            0.4719     6.1392     1.5560 H       
  32 H32            2.7281     6.8761     0.9093 H       
  33 H33            4.3172     5.2800    -0.0801 H       
  34 H34            3.6611     2.9337    -0.4186 H       
  35 H35           -1.4887    -0.9492    -1.3021 H       
  36 H36           -0.9735    -1.8777     0.1265 H       
  37 H37           -2.0352    -0.4623     0.3205 H       
  38 H38           -1.7761     1.2936     2.0573 H       
  39 H39           -4.3327     4.3025     0.4468 H       
  40 H40           -2.8449     4.5341    -1.4997 H       
  41 H41           -0.8131     3.1551    -1.6696 H       
  42 H42           -2.5375     3.5612     4.2151 H       
  43 H43           -3.6043     4.8174     3.5428 H       
  44 H44           -5.4535     4.0219     4.9907 H       
  45 H45           -4.3866     2.7657     5.6630 H       
  46 H46           -4.0355     4.4849     5.9619 H       
  47 H47            3.1179    -4.0349     0.2380 H       
  48 H48            3.1356    -3.7810    -1.5237 H       
  49 H49            5.4501    -2.9037    -1.3740 H       
  50 H50            5.4324    -3.1576     0.3877 H       
  51 H51            5.3483    -4.5534    -0.7136 H       
@<TRIPOS>BOND
   1    1    2 1
   2    1    5 1
   3    1   16 1
   4    2    3 2
   5    2   15 1
   6    3    4 1
   7    3    6 1
   8    4    5 2
   9    4   29 1
  10    5    9 1
  11    6    7 2
  12    6    8 1
  13    8   27 1
  14    9   10 ar
  15    9   14 ar
  16   10   11 ar
  17   10   30 1
  18   11   12 ar
  19   11   31 1
  20   12   13 ar
  21   12   32 1
  22   13   14 ar
  23   13   33 1
  24   14   34 1
  25   15   35 1
  26   15   36 1
  27   15   37 1
  28   16   17 ar
  29   16   21 ar
  30   17   18 ar
  31   17   38 1
  32   18   19 ar
  33   18   22 1
  34   19   20 ar
  35   19   39 1
  36   20   21 ar
  37   20   40 1
  38   21   41 1
  39   22   23 2
  40   22   24 2
  41   22   25 1
  42   25   26 1
  43   25   42 1
  44   25   43 1
  45   26   44 1
  46   26   45 1
  47   26   46 1
  48   27   28 1
  49   27   47 1
  50   27   48 1
  51   28   49 1
  52   28   50 1
  53   28   51 1

#	End of record

