#	Name: ASD05430511
#	Creating user name:	WinNT
#	Creation time:	15. 06. 2019 21:00

#	Modifying user name:	WinNT
#	Modification time:	15. 06. 2019 21:00

#	Program:	/corina/corina34_cracker 3.40 0067  02.08.2006

@<TRIPOS>MOLECULE
ASD05430511
  59   63    0    0    0
SMALL
NO_CHARGES


@<TRIPOS>ATOM
   1 C1            -0.0181     1.3899    -0.0635 C.ar    
   2 C2             0.0015    -0.0044    -0.0338 C.ar    
   3 C3            -1.1894    -0.7183     0.0109 C.ar    
   4 C4            -2.3954    -0.0525     0.0260 C.ar    
   5 C5            -2.4228     1.3458    -0.0031 C.ar    
   6 C6            -1.2238     2.0646    -0.0428 C.ar    
   7 C7            -4.8635     1.3651     0.0559 C.2     
   8 C8            -3.7100     2.0588     0.0130 C.2     
   9 O9             1.1493     2.0853    -0.1072 O.3     
  10 C10            1.6131    -1.6839     0.8074 C.2     
  11 N11            1.2250    -0.6865    -0.0495 N.pl3   
  12 C12            2.8536    -2.0549     0.4377 C.2     
  13 N13            3.2178    -1.3082    -0.6153 N.2     
  14 C14            2.2510    -0.4848    -0.9167 C.2     
  15 C15            3.6886    -3.1241     1.0939 C.3     
  16 C16           -8.6331     2.1856     1.8084 C.ar    
  17 C17           -8.0046     1.2677     2.6292 C.ar    
  18 C18           -9.3053     3.2607     2.3594 C.ar    
  19 C19           -9.3494     3.4192     3.7315 C.ar    
  20 C20           -8.7203     2.5005     4.5546 C.ar    
  21 C21           -8.0478     1.4239     4.0017 C.ar    
  22 F22           -8.7624     2.6547     5.8961 F       
  23 N23           -7.3288     1.3471    -0.0273 N.am    
  24 C24            1.0545     3.5109    -0.1358 C.3     
  25 C25           -8.5801     2.0175     0.3118 C.3     
  26 C26           -7.2804     0.0760    -0.4608 C.2     
  27 C27           -8.5537    -0.6462    -0.8260 C.3     
  28 O28           -9.5281     0.3451    -1.1809 O.3     
  29 C29           -9.8129     1.2508    -0.1232 C.3     
  30 O30           -6.2129    -0.4906    -0.5588 O.2     
  31 C31           -8.5626     3.4114    -0.3247 C.3     
  32 C32           -7.3618     4.1800     0.2337 C.3     
  33 N33           -6.1534     3.3670     0.1780 N.2     
  34 C34           -6.1469     2.0760     0.0721 C.2     
  35 H35           -1.1697    -1.7979     0.0334 H       
  36 H36           -3.3197    -0.6102     0.0600 H       
  37 H37           -1.2405     3.1442    -0.0651 H       
  38 H38           -4.8439     0.2856     0.0785 H       
  39 H39           -3.7297     3.1384    -0.0095 H       
  40 H40            1.0364    -2.0906     1.6250 H       
  41 H41            2.2644     0.2361    -1.7208 H       
  42 H42            3.4906    -4.0839     0.6166 H       
  43 H43            4.7448    -2.8766     0.9877 H       
  44 H44            3.4345    -3.1853     2.1521 H       
  45 H45           -7.4801     0.4280     2.1977 H       
  46 H46           -9.7959     3.9771     1.7172 H       
  47 H47           -9.8739     4.2595     4.1617 H       
  48 H48           -7.5570     0.7065     4.6427 H       
  49 H49            0.4961     3.8203    -1.0193 H       
  50 H50            0.5397     3.8588     0.7597 H       
  51 H51            2.0555     3.9409    -0.1697 H       
  52 H52           -8.3736    -1.3077    -1.6734 H       
  53 H53           -8.9084    -1.2248     0.0270 H       
  54 H54          -10.1840     0.6904     0.7350 H       
  55 H55          -10.5829     1.9494    -0.4505 H       
  56 H56           -8.4694     3.3201    -1.4069 H       
  57 H57           -9.4837     3.9395    -0.0781 H       
  58 H58           -7.2115     5.0859    -0.3536 H       
  59 H59           -7.5621     4.4544     1.2694 H       
@<TRIPOS>BOND
   1    1    2 ar
   2    1    9 1
   3    1    6 ar
   4    2    3 ar
   5    2   11 1
   6    3    4 ar
   7    3   35 1
   8    4    5 ar
   9    4   36 1
  10    5    6 ar
  11    5    8 1
  12    6   37 1
  13    7    8 2
  14    7   34 1
  15    7   38 1
  16    8   39 1
  17    9   24 1
  18   10   11 1
  19   10   12 2
  20   10   40 1
  21   11   14 1
  22   12   13 1
  23   12   15 1
  24   13   14 2
  25   14   41 1
  26   15   42 1
  27   15   43 1
  28   15   44 1
  29   16   17 ar
  30   16   18 ar
  31   16   25 1
  32   17   21 ar
  33   17   45 1
  34   18   19 ar
  35   18   46 1
  36   19   20 ar
  37   19   47 1
  38   20   21 ar
  39   20   22 1
  40   21   48 1
  41   23   25 1
  42   23   26 am
  43   23   34 1
  44   24   49 1
  45   24   50 1
  46   24   51 1
  47   25   31 1
  48   25   29 1
  49   26   27 1
  50   26   30 2
  51   27   28 1
  52   27   52 1
  53   27   53 1
  54   28   29 1
  55   29   54 1
  56   29   55 1
  57   31   32 1
  58   31   56 1
  59   31   57 1
  60   32   33 1
  61   32   58 1
  62   32   59 1
  63   33   34 2

#	End of record

