#	Name: ASD01120123
#	Creating user name:	WinNT
#	Creation time:	15. 06. 2019 18:59

#	Modifying user name:	WinNT
#	Modification time:	15. 06. 2019 18:59

#	Program:	/corina/corina34_cracker 3.40 0067  02.08.2006

@<TRIPOS>MOLECULE
ASD01120123
  32   34    0    0    0
SMALL
NO_CHARGES


@<TRIPOS>ATOM
   1 C1            -0.0175     1.2673    -0.6957 C.ar    
   2 C2             1.0833     1.5919    -1.4673 C.ar    
   3 C3             2.2912     0.9584    -1.2510 C.ar    
   4 C4             2.3997    -0.0060    -0.2570 C.ar    
   5 C5             1.2919    -0.3296     0.5163 C.ar    
   6 C6             0.0870     0.3078     0.2946 C.ar    
   7 N7             3.6204    -0.6495    -0.0357 N.pl3   
   8 C8             4.8073     0.0581    -0.1479 C.2     
   9 N9             5.9966    -0.4565    -0.0804 N.2     
  10 C10            7.0204     0.3764    -0.2107 C.2     
  11 C11            6.6937     1.6666    -0.3989 C.2     
  12 S12            4.9363     1.7944    -0.4120 S.3     
  13 C13            8.4292    -0.0840    -0.1523 C.ar    
  14 C14            8.7167    -1.4381     0.0456 C.ar    
  15 C15           10.0335    -1.8618     0.0993 C.ar    
  16 C16           11.0639    -0.9442    -0.0425 C.ar    
  17 C17           10.7793     0.4006    -0.2391 C.ar    
  18 C18            9.4698     0.8305    -0.3001 C.ar    
  19 O19           12.3559    -1.3624     0.0114 O.3     
  20 O20            7.7061    -2.3357     0.1853 O.3     
  21 H21           -0.9597     1.7676    -0.8640 H       
  22 H22            0.9982     2.3415    -2.2402 H       
  23 H23            3.1504     1.2121    -1.8542 H       
  24 H24            1.3727    -1.0791     1.2897 H       
  25 H25           -0.7745     0.0569     0.8957 H       
  26 H26            3.6372    -1.5911     0.1964 H       
  27 H27            7.3887     2.4838    -0.5242 H       
  28 H28           10.2586    -2.9070     0.2520 H       
  29 H29           11.5851     1.1113    -0.3486 H       
  30 H30            9.2514     1.8771    -0.4530 H       
  31 H31           12.7245    -1.6126    -0.8469 H       
  32 H32            7.4074    -2.7245    -0.6482 H       
@<TRIPOS>BOND
   1    1    2 ar
   2    1    6 ar
   3    1   21 1
   4    2    3 ar
   5    2   22 1
   6    3    4 ar
   7    3   23 1
   8    4    5 ar
   9    4    7 1
  10    5    6 ar
  11    5   24 1
  12    6   25 1
  13    7    8 1
  14    7   26 1
  15    8    9 2
  16    8   12 1
  17    9   10 1
  18   10   11 2
  19   10   13 1
  20   11   12 1
  21   11   27 1
  22   13   14 ar
  23   13   18 ar
  24   14   15 ar
  25   14   20 1
  26   15   16 ar
  27   15   28 1
  28   16   17 ar
  29   16   19 1
  30   17   18 ar
  31   17   29 1
  32   18   30 1
  33   19   31 1
  34   20   32 1

#	End of record

