#	Name: ASD05233005
#	Creating user name:	WinNT
#	Creation time:	15. 06. 2019 20:57

#	Modifying user name:	WinNT
#	Modification time:	15. 06. 2019 20:57

#	Program:	/corina/corina34_cracker 3.40 0067  02.08.2006

@<TRIPOS>MOLECULE
ASD05233005
  24   25    0    0    0
SMALL
NO_CHARGES


@<TRIPOS>ATOM
   1 C1            -0.0163     1.3476     0.0095 C.2     
   2 C2             0.0021    -0.0041     0.0020 C.2     
   3 C3            -1.3311    -0.4495     0.0123 C.2     
   4 C4            -2.1289     0.6555     0.0259 C.2     
   5 N5            -1.3164     1.7623     0.0300 N.pl3   
   6 C6            -3.6068     0.6613     0.0400 C.ar    
   7 C7            -4.2985     0.6580     1.2569 C.ar    
   8 C8            -5.6840     0.6634     1.2605 C.ar    
   9 C9            -6.3804     0.6720     0.0653 C.ar    
  10 C10           -5.6997     0.6752    -1.1405 C.ar    
  11 C11           -4.3193     0.6757    -1.1597 C.ar    
  12 O12           -3.6135     0.6492     2.4307 O.3     
  13 Br13          -6.6242     0.6585     2.9012 Br      
  14 Br14          -6.6644     0.6863    -2.7669 Br      
  15 Br15          -1.9106    -2.2495     0.0082 Br      
  16 Br16           1.5439    -1.0987    -0.0191 Br      
  17 Br17           1.5030     2.4736     0.0010 Br      
  18 C18           -1.7693     3.1555     0.0439 C.3     
  19 H19           -7.4604     0.6758     0.0727 H       
  20 H20           -3.7916     0.6786    -2.1019 H       
  21 H21           -3.4115     1.5300     2.7749 H       
  22 H22           -1.8757     3.4927     1.0749 H       
  23 H23           -1.0383     3.7803    -0.4692 H       
  24 H24           -2.7310     3.2299    -0.4638 H       
@<TRIPOS>BOND
   1    1    2 2
   2    1   17 1
   3    1    5 1
   4    2    3 1
   5    2   16 1
   6    3    4 2
   7    3   15 1
   8    4    5 1
   9    4    6 1
  10    5   18 1
  11    6    7 ar
  12    6   11 ar
  13    7    8 ar
  14    7   12 1
  15    8    9 ar
  16    8   13 1
  17    9   10 ar
  18    9   19 1
  19   10   11 ar
  20   10   14 1
  21   11   20 1
  22   12   21 1
  23   18   22 1
  24   18   23 1
  25   18   24 1

#	End of record

