#	Name: ASD01000084
#	Creating user name:	WinNT
#	Creation time:	15. 06. 2019 18:54

#	Modifying user name:	WinNT
#	Modification time:	15. 06. 2019 18:54

#	Program:	/corina/corina34_cracker 3.40 0067  02.08.2006

@<TRIPOS>MOLECULE
ASD01000084
  70   73    0    0    0
SMALL
NO_CHARGES


@<TRIPOS>ATOM
   1 C1             1.7468     2.5920    -3.5642 C.ar    
   2 C2             1.3014     1.4904    -2.8578 C.ar    
   3 C3             2.2099     0.6559    -2.2340 C.ar    
   4 C4             3.5637     0.9227    -2.3170 C.ar    
   5 C5             4.0091     2.0237    -3.0241 C.ar    
   6 C6             3.1006     2.8591    -3.6468 C.ar    
   7 C7             1.7243    -0.5445    -1.4630 C.3     
   8 N8             1.4620    -1.6474    -2.3909 N.am    
   9 C9             2.4139    -2.5947    -2.5965 C.2     
  10 C10            3.7180    -2.4712    -1.8514 C.3     
  11 C11            3.6730    -3.3448    -0.5962 C.3     
  12 C12            0.2715    -1.7160    -3.0311 C.2     
  13 C13            0.0617    -2.8435    -3.9507 C.ar    
  14 C14            1.1110    -3.7769    -4.1053 C.ar    
  15 N15            2.2574    -3.6012    -3.4016 N.2     
  16 C16           -1.1278    -3.0066    -4.6582 C.ar    
  17 C17           -1.2726    -4.0734    -5.5010 C.ar    
  18 C18           -0.2460    -4.9972    -5.6594 C.ar    
  19 C19            0.9405    -4.8582    -4.9715 C.ar    
  20 C20            4.5595    -4.1642    -4.7992 C.3     
  21 C21            4.8001    -4.2587    -3.2912 C.3     
  22 N22            4.8169    -2.9122    -2.7141 N.am    
  23 C23            4.9546    -3.1399     0.2140 C.3     
  24 C24            4.7110    -5.5509    -5.4277 C.3     
  25 N25            4.4801    -5.4602    -6.8756 N.3     
  26 Cl26          -0.4607    -6.3418    -6.7362 Cl      
  27 O27           -0.5920    -0.8769    -2.8520 O.2     
  28 C28            5.8434    -2.0792    -2.9768 C.2     
  29 C29            6.8223    -2.4219    -4.0298 C.ar    
  30 O30            5.9640    -1.0461    -2.3478 O.2     
  31 C31            7.7410    -1.4674    -4.4701 C.ar    
  32 C32            8.6519    -1.7932    -5.4529 C.ar    
  33 C33            8.6563    -3.0639    -6.0032 C.ar    
  34 C34            7.7472    -4.0149    -5.5709 C.ar    
  35 C35            6.8358    -3.7032    -4.5840 C.ar    
  36 Br36           9.9083    -3.5022    -7.3509 Br      
  37 C37            5.5292    -4.6647    -7.5272 C.3     
  38 C38            4.3822    -6.7965    -7.4778 C.3     
  39 H39            1.0373     3.2415    -4.0554 H       
  40 H40            0.2437     1.2820    -2.7930 H       
  41 H41            4.2734     0.2711    -1.8290 H       
  42 H42            5.0668     2.2324    -3.0887 H       
  43 H43            3.4486     3.7191    -4.1996 H       
  44 H44            2.4861    -0.8474    -0.7447 H       
  45 H45            0.8065    -0.2892    -0.9334 H       
  46 H46            3.8758    -1.4314    -1.5650 H       
  47 H47            2.8113    -3.0655     0.0102 H       
  48 H48            3.5895    -4.3924    -0.8854 H       
  49 H49           -1.9312    -2.2944    -4.5410 H       
  50 H50           -2.1944    -4.1999    -6.0493 H       
  51 H51            1.7323    -5.5811    -5.1015 H       
  52 H52            3.5527    -3.7897    -4.9838 H       
  53 H53            5.2871    -3.4835    -5.2413 H       
  54 H54            4.0014    -4.8409    -2.8317 H       
  55 H55            5.7575    -4.7454    -3.1058 H       
  56 H56            5.8163    -3.4193    -0.3923 H       
  57 H57            5.0381    -2.0923     0.5032 H       
  58 H58            4.9225    -3.7623     1.1083 H       
  59 H59            5.7179    -5.9254    -5.2431 H       
  60 H60            3.9835    -6.2316    -4.9857 H       
  61 H61            7.7381    -0.4758    -4.0422 H       
  62 H62            9.3631    -1.0556    -5.7944 H       
  63 H63            7.7550    -5.0041    -6.0044 H       
  64 H64            6.1275    -4.4458    -4.2475 H       
  65 H65            6.4987    -5.1326    -7.3566 H       
  66 H66            5.3339    -4.6136    -8.5983 H       
  67 H67            5.5333    -3.6576    -7.1102 H       
  68 H68            3.5525    -7.3393    -7.0249 H       
  69 H69            4.2113    -6.7002    -8.5500 H       
  70 H70            5.3102    -7.3416    -7.3054 H       
@<TRIPOS>BOND
   1    1    2 ar
   2    1    6 ar
   3    1   39 1
   4    2    3 ar
   5    2   40 1
   6    3    4 ar
   7    3    7 1
   8    4    5 ar
   9    4   41 1
  10    5    6 ar
  11    5   42 1
  12    6   43 1
  13    7    8 1
  14    7   44 1
  15    7   45 1
  16    8    9 1
  17    8   12 am
  18    9   10 1
  19    9   15 2
  20   10   11 1
  21   10   22 1
  22   10   46 1
  23   11   23 1
  24   11   47 1
  25   11   48 1
  26   12   13 1
  27   12   27 2
  28   13   14 ar
  29   13   16 ar
  30   14   15 1
  31   14   19 ar
  32   16   17 ar
  33   16   49 1
  34   17   18 ar
  35   17   50 1
  36   18   19 ar
  37   18   26 1
  38   19   51 1
  39   20   21 1
  40   20   24 1
  41   20   52 1
  42   20   53 1
  43   21   22 1
  44   21   54 1
  45   21   55 1
  46   22   28 am
  47   23   56 1
  48   23   57 1
  49   23   58 1
  50   24   25 1
  51   24   59 1
  52   24   60 1
  53   25   37 1
  54   25   38 1
  55   28   29 1
  56   28   30 2
  57   29   31 ar
  58   29   35 ar
  59   31   32 ar
  60   31   61 1
  61   32   33 ar
  62   32   62 1
  63   33   34 ar
  64   33   36 1
  65   34   35 ar
  66   34   63 1
  67   35   64 1
  68   37   65 1
  69   37   66 1
  70   37   67 1
  71   38   68 1
  72   38   69 1
  73   38   70 1

#	End of record

