#	Name: ASD04590325
#	Creating user name:	WinNT
#	Creation time:	15. 06. 2019 20:50

#	Modifying user name:	WinNT
#	Modification time:	15. 06. 2019 20:50

#	Program:	/corina/corina34_cracker 3.40 0067  02.08.2006

@<TRIPOS>MOLECULE
ASD04590325
  39   42    0    0    0
SMALL
NO_CHARGES


@<TRIPOS>ATOM
   1 C1            -0.0167     1.3834     0.0096 C.ar    
   2 C2             0.0021    -0.0041     0.0020 C.ar    
   3 C3             1.1863    -0.6848    -0.0130 C.ar    
   4 C4             2.3948     0.0191    -0.0208 C.ar    
   5 C5             2.3756     1.4250    -0.0131 C.ar    
   6 C6             1.1624     2.0987     0.0022 C.ar    
   7 N7             3.6952    -0.3636    -0.0361 N.2     
   8 C8             4.4664     0.6967    -0.0382 C.2     
   9 N9             3.6970     1.8290    -0.0243 N.pl3   
  10 C10            5.9437     0.6731    -0.0533 C.2     
  11 C11            6.7565    -0.4840    -0.0683 C.2     
  12 C12            8.0504    -0.0799    -0.0799 C.2     
  13 N13            8.0625     1.2789    -0.0726 N.pl3   
  14 N14            6.7358     1.7273    -0.0610 N.2     
  15 N15            6.3044    -1.8133    -0.0700 N.am    
  16 C16            7.1923    -2.8271    -0.0850 C.2     
  17 C17            6.7165    -4.2259    -0.0868 C.ar    
  18 O18            8.3849    -2.5906    -0.0971 O.2     
  19 C19            6.0272    -6.1876    -1.2891 C.ar    
  20 C20            5.8235    -6.8483    -0.0904 C.ar    
  21 C21            6.0587    -6.2039     1.1107 C.ar    
  22 C22            6.5040    -4.8966     1.1206 C.ar    
  23 Cl23           6.7993    -4.0891     2.6287 Cl      
  24 C24            6.4717    -4.8818    -1.2945 C.ar    
  25 C25            6.6921    -4.1646    -2.6014 C.3     
  26 H26           -0.9614     1.9069     0.0170 H       
  27 H27           -0.9290    -0.5513     0.0084 H       
  28 H28            1.1893    -1.7648    -0.0185 H       
  29 H29            1.1417     3.1785     0.0079 H       
  30 H30            4.0192     2.7439    -0.0230 H       
  31 H31            8.9176    -0.7236    -0.0923 H       
  32 H32            8.8531     1.8410    -0.0775 H       
  33 H33            5.3530    -2.0020    -0.0603 H       
  34 H34            5.8418    -6.6972    -2.2231 H       
  35 H35            5.4754    -7.8706    -0.0926 H       
  36 H36            5.8977    -6.7255     2.0426 H       
  37 H37            7.7180    -4.3226    -2.9340 H       
  38 H38            6.0031    -4.5547    -3.3506 H       
  39 H39            6.5146    -3.0979    -2.4649 H       
@<TRIPOS>BOND
   1    1    2 ar
   2    1    6 ar
   3    1   26 1
   4    2    3 ar
   5    2   27 1
   6    3    4 ar
   7    3   28 1
   8    4    5 ar
   9    4    7 1
  10    5    6 ar
  11    5    9 1
  12    6   29 1
  13    7    8 2
  14    8    9 1
  15    8   10 1
  16    9   30 1
  17   10   11 1
  18   10   14 2
  19   11   12 2
  20   11   15 1
  21   12   13 1
  22   12   31 1
  23   13   14 1
  24   13   32 1
  25   15   16 am
  26   15   33 1
  27   16   17 1
  28   16   18 2
  29   17   22 ar
  30   17   24 ar
  31   19   20 ar
  32   19   24 ar
  33   19   34 1
  34   20   21 ar
  35   20   35 1
  36   21   22 ar
  37   21   36 1
  38   22   23 1
  39   24   25 1
  40   25   37 1
  41   25   38 1
  42   25   39 1

#	End of record

