#	Name: ASD02030425
#	Creating user name:	WinNT
#	Creation time:	15. 06. 2019 20:15

#	Modifying user name:	WinNT
#	Modification time:	15. 06. 2019 20:15

#	Program:	/corina/corina34_cracker 3.40 0067  02.08.2006

@<TRIPOS>MOLECULE
ASD02030425
  22   23    0    0    0
SMALL
NO_CHARGES


@<TRIPOS>ATOM
   1 C1            -0.0170     1.4027     0.0098 C.ar    
   2 C2             0.0021    -0.0041     0.0020 C.ar    
   3 C3             1.1939    -0.6619    -0.0128 C.ar    
   4 C4             2.4000     0.0388    -0.0201 C.ar    
   5 C5             2.4202     1.3995    -0.0129 C.ar    
   6 C6             1.2101     2.1149     0.0019 C.ar    
   7 C7             1.2009     3.5199     0.0089 C.ar    
   8 C8             0.0158     4.1939     0.0238 C.ar    
   9 C9            -1.2105     3.4949     0.0319 C.ar    
  10 C10           -1.2282     2.1091     0.0193 C.ar    
  11 Br11           1.2147    -2.5527    -0.0232 Br      
  12 O12            0.0152     5.5512     0.0315 O.3     
  13 C13           -2.4807     4.2437     0.0485 C.2     
  14 O14           -2.4696     5.4587     0.0553 O.2     
  15 O15           -3.6537     3.5806     0.0563 O.3     
  16 H16           -0.9242    -0.5594     0.0082 H       
  17 H17            3.3319    -0.5068    -0.0311 H       
  18 H18            3.3622     1.9277    -0.0190 H       
  19 H19            2.1327     4.0660     0.0029 H       
  20 H20           -2.1681     1.5771     0.0209 H       
  21 H21            0.0067     5.9495    -0.8497 H       
  22 H22           -4.4598     4.1146     0.0672 H       
@<TRIPOS>BOND
   1    1    2 ar
   2    1    6 ar
   3    1   10 ar
   4    2    3 ar
   5    2   16 1
   6    3    4 ar
   7    3   11 1
   8    4    5 ar
   9    4   17 1
  10    5    6 ar
  11    5   18 1
  12    6    7 ar
  13    7    8 ar
  14    7   19 1
  15    8    9 ar
  16    8   12 1
  17    9   10 ar
  18    9   13 1
  19   10   20 1
  20   12   21 1
  21   13   14 2
  22   13   15 1
  23   15   22 1

#	End of record

