#	Name: ASD05430688
#	Creating user name:	WinNT
#	Creation time:	15. 06. 2019 21:00

#	Modifying user name:	WinNT
#	Modification time:	15. 06. 2019 21:00

#	Program:	/corina/corina34_cracker 3.40 0067  02.08.2006

@<TRIPOS>MOLECULE
ASD05430688
  24   24    0    0    0
SMALL
NO_CHARGES


@<TRIPOS>ATOM
   1 C1            -0.0167     1.3779     0.0096 C.ar    
   2 C2             0.0021    -0.0041     0.0020 C.ar    
   3 C3            -1.1848    -0.7130     0.0095 C.ar    
   4 C4            -2.4119     1.3476     0.0439 C.ar    
   5 C5            -1.2223     2.0543     0.0305 C.ar    
   6 C6             1.2785     2.1483     0.0014 C.3     
   7 C7            -2.3932    -0.0391     0.0247 C.ar    
   8 C8             2.0736     1.7959    -1.2574 C.3     
   9 C9             0.9795     3.6488     0.0123 C.3     
  10 C10            2.0974     1.7824     1.2409 C.3     
  11 F11           -3.5534    -0.7312     0.0377 F       
  12 F12           -3.5904     2.0078     0.0648 F       
  13 H13            0.9449    -0.5307    -0.0102 H       
  14 H14           -1.1689    -1.7929     0.0032 H       
  15 H15           -1.2355     3.1341     0.0458 H       
  16 H16            1.4902     2.0565    -2.1405 H       
  17 H17            3.0104     2.3531    -1.2634 H       
  18 H18            2.2866     0.7269    -1.2652 H       
  19 H19            0.4131     3.8999     0.9091 H       
  20 H20            1.9163     4.2060     0.0063 H       
  21 H21            0.3961     3.9094    -0.8708 H       
  22 H22            2.3104     0.7135     1.2331 H       
  23 H23            3.0342     2.3396     1.2350 H       
  24 H24            1.5310     2.0335     2.1377 H       
@<TRIPOS>BOND
   1    1    2 ar
   2    1    6 1
   3    1    5 ar
   4    2    3 ar
   5    2   13 1
   6    3    7 ar
   7    3   14 1
   8    4    5 ar
   9    4   12 1
  10    4    7 ar
  11    5   15 1
  12    6    8 1
  13    6    9 1
  14    6   10 1
  15    7   11 1
  16    8   16 1
  17    8   17 1
  18    8   18 1
  19    9   19 1
  20    9   20 1
  21    9   21 1
  22   10   22 1
  23   10   23 1
  24   10   24 1

#	End of record

