#	Name: ASD01882973
#	Creating user name:	WinNT
#	Creation time:	15. 06. 2019 19:45

#	Modifying user name:	WinNT
#	Modification time:	15. 06. 2019 19:45

#	Program:	/corina/corina34_cracker 3.40 0067  02.08.2006

@<TRIPOS>MOLECULE
ASD01882973
  42   46    0    0    0
SMALL
NO_CHARGES


@<TRIPOS>ATOM
   1 C1            -0.0159     1.3220     0.0093 C.2     
   2 N2             0.0021    -0.0041     0.0020 N.2     
   3 C3             1.1523    -0.6857    -0.0126 C.2     
   4 C4             2.3835     0.0173    -0.0206 C.2     
   5 C5             2.3523     1.3664    -0.0131 C.2     
   6 N6             1.1484     2.0132     0.0019 N.pl3   
   7 O7            -1.0993     2.1290     0.0184 O.3     
   8 C8             0.8540     3.4562     0.0125 C.3     
   9 C9            -0.6831     3.5211     0.0242 C.3     
  10 O10            1.1423    -1.9071    -0.0187 O.2     
  11 C11           -1.1944     4.2379    -1.2270 C.3     
  12 O12           -2.6209     4.3119    -1.1842 O.3     
  13 C13           -5.2545     5.6560    -3.3228 C.ar    
  14 C14           -4.4952     6.1781    -4.3758 C.ar    
  15 C15           -5.3285     6.7900    -5.3938 C.2     
  16 C16           -6.6362     6.7435    -5.1444 C.2     
  17 S17           -6.9648     5.9368    -3.6233 S.3     
  18 C18           -3.0879     6.0569    -4.3286 C.ar    
  19 C19           -2.4821     5.4430    -3.2770 C.ar    
  20 C20           -3.2387     4.9235    -2.2290 C.ar    
  21 C21           -4.6141     5.0324    -2.2482 C.ar    
  22 C22           -9.9695     7.7456    -6.5626 C.ar    
  23 C23           -9.0319     7.2114    -5.7011 C.ar    
  24 C24           -7.6758     7.3006    -6.0349 C.ar    
  25 C25           -7.3310     7.9330    -7.2363 C.ar    
  26 C26           -8.3322     8.4390    -8.0371 C.ar    
  27 N27           -9.6003     8.3336    -7.6857 N.ar    
  28 Cl28         -11.6564     7.6370    -6.1670 Cl      
  29 H29            3.3237    -0.5140    -0.0321 H       
  30 H30            3.2727     1.9314    -0.0185 H       
  31 H31            1.2651     3.9237     0.9072 H       
  32 H32            1.2480     3.9334    -0.8848 H       
  33 H33           -1.0396     4.0220     0.9243 H       
  34 H34           -0.7793     5.2451    -1.2639 H       
  35 H35           -0.8857     3.6850    -2.1142 H       
  36 H36           -4.9207     7.2474    -6.2832 H       
  37 H37           -2.4887     6.4547    -5.1343 H       
  38 H38           -1.4057     5.3573    -3.2544 H       
  39 H39           -5.1977     4.6285    -1.4341 H       
  40 H40           -9.3404     6.7320    -4.7838 H       
  41 H41           -6.2958     8.0231    -7.5306 H       
  42 H42           -8.0757     8.9282    -8.9651 H       
@<TRIPOS>BOND
   1    1    2 2
   2    1    6 1
   3    1    7 1
   4    2    3 1
   5    3    4 1
   6    3   10 2
   7    4    5 2
   8    4   29 1
   9    5    6 1
  10    5   30 1
  11    6    8 1
  12    7    9 1
  13    8    9 1
  14    8   31 1
  15    8   32 1
  16    9   11 1
  17    9   33 1
  18   11   12 1
  19   11   34 1
  20   11   35 1
  21   12   20 1
  22   13   14 ar
  23   13   17 1
  24   13   21 ar
  25   14   15 1
  26   14   18 ar
  27   15   16 2
  28   15   36 1
  29   16   17 1
  30   16   24 1
  31   18   19 ar
  32   18   37 1
  33   19   20 ar
  34   19   38 1
  35   20   21 ar
  36   21   39 1
  37   22   23 ar
  38   22   27 ar
  39   22   28 1
  40   23   24 ar
  41   23   40 1
  42   24   25 ar
  43   25   26 ar
  44   25   41 1
  45   26   27 ar
  46   26   42 1

#	End of record

