#	Name: ASD01883930
#	Creating user name:	WinNT
#	Creation time:	15. 06. 2019 19:47

#	Modifying user name:	WinNT
#	Modification time:	15. 06. 2019 19:47

#	Program:	/corina/corina34_cracker 3.40 0067  02.08.2006

@<TRIPOS>MOLECULE
ASD01883930
  58   62    0    0    0
SMALL
NO_CHARGES


@<TRIPOS>ATOM
   1 N1             4.1695    -0.7634     1.0298 N.2     
   2 S2             2.8567    -1.6126     1.0717 S.3     
   3 C3             1.8224    -0.3291     1.5665 C.2     
   4 C4             2.6647     0.7591     1.6681 C.2     
   5 N5             3.9173     0.4408     1.3612 N.2     
   6 C6             2.2281     2.1094     2.0683 C.2     
   7 N7             3.1240     3.1137     2.1402 N.am    
   8 O8             1.0596     2.3169     2.3334 O.2     
   9 C9             4.5560     2.9205     1.8297 C.3     
  10 C10            2.7429     4.4889     2.5294 C.3     
  11 C11            3.1859     5.4289     1.4007 C.3     
  12 N12            4.6230     5.2698     1.1539 N.3     
  13 C13            5.2351     4.2821     2.0459 C.3     
  14 C14            5.2817     6.4934     1.2361 C.ar    
  15 N15            4.8887     7.3865     2.1307 N.ar    
  16 C16            6.3463     6.7568     0.3809 C.ar    
  17 C17            6.9983     7.9753     0.4671 C.ar    
  18 C18            6.5587     8.8925     1.4122 C.ar    
  19 C19            5.4867     8.5628     2.2439 C.ar    
  20 C20            3.5337     4.8499     3.7949 C.3     
  21 C21            5.0303     4.7167     3.4995 C.3     
  22 N22            6.9675    10.1775     1.7668 N.am    
  23 C23            6.1744    10.6090     2.7661 C.2     
  24 N24            5.2747     9.6564     3.0735 N.am    
  25 C25            4.2432     9.7569     4.1090 C.3     
  26 C26            8.0689    10.9277     1.1584 C.3     
  27 O27            6.2604    11.6938     3.3106 O.2     
  28 C28            7.5385    11.7465    -0.0202 C.3     
  29 C29            6.4699    12.7223     0.4765 C.3     
  30 C30            8.6888    12.5300    -0.6557 C.3     
  31 C31            6.9264    10.8059    -1.0602 C.3     
  32 H32            0.7595    -0.3667     1.7541 H       
  33 H33            4.9870     2.1772     2.5004 H       
  34 H34            4.6745     2.6041     0.7934 H       
  35 H35            1.6682     4.5617     2.6961 H       
  36 H36            2.6337     5.1889     0.4920 H       
  37 H37            2.9795     6.4603     1.6865 H       
  38 H38            6.2995     4.2001     1.8259 H       
  39 H39            6.6612     6.0190    -0.3422 H       
  40 H40            7.8283     8.2063    -0.1842 H       
  41 H41            3.3077     5.8758     4.0858 H       
  42 H42            3.2589     4.1715     4.6026 H       
  43 H43            5.4668     3.9723     4.1655 H       
  44 H44            5.5170     5.6782     3.6626 H       
  45 H45            4.3137    10.7280     4.5990 H       
  46 H46            3.2589     9.6507     3.6529 H       
  47 H47            4.3895     8.9668     4.8454 H       
  48 H48            8.5050    11.5978     1.8993 H       
  49 H49            8.8302    10.2325     0.8045 H       
  50 H50            6.9059    13.3924     1.2174 H       
  51 H51            6.0920    13.3056    -0.3632 H       
  52 H52            5.6504    12.1641     0.9292 H       
  53 H53            9.4501    11.8348    -1.0095 H       
  54 H54            8.3109    13.1133    -1.4953 H       
  55 H55            9.1249    13.2001     0.0852 H       
  56 H56            6.1069    10.2477    -0.6075 H       
  57 H57            6.5485    11.3892    -1.8999 H       
  58 H58            7.6877    10.1107    -1.4141 H       
@<TRIPOS>BOND
   1    1    2 1
   2    1    5 2
   3    2    3 1
   4    3    4 2
   5    3   32 1
   6    4    5 1
   7    4    6 1
   8    6    7 am
   9    6    8 2
  10    7    9 1
  11    7   10 1
  12    9   13 1
  13    9   33 1
  14    9   34 1
  15   10   11 1
  16   10   20 1
  17   10   35 1
  18   11   12 1
  19   11   36 1
  20   11   37 1
  21   12   13 1
  22   12   14 1
  23   13   21 1
  24   13   38 1
  25   14   15 ar
  26   14   16 ar
  27   15   19 ar
  28   16   17 ar
  29   16   39 1
  30   17   18 ar
  31   17   40 1
  32   18   19 ar
  33   18   22 1
  34   19   24 1
  35   20   21 1
  36   20   41 1
  37   20   42 1
  38   21   43 1
  39   21   44 1
  40   22   23 am
  41   22   26 1
  42   23   24 am
  43   23   27 2
  44   24   25 1
  45   25   45 1
  46   25   46 1
  47   25   47 1
  48   26   28 1
  49   26   48 1
  50   26   49 1
  51   28   29 1
  52   28   30 1
  53   28   31 1
  54   29   50 1
  55   29   51 1
  56   29   52 1
  57   30   53 1
  58   30   54 1
  59   30   55 1
  60   31   56 1
  61   31   57 1
  62   31   58 1

#	End of record

