#	Name: ASD01914482
#	Creating user name:	WinNT
#	Creation time:	15. 06. 2019 20:03

#	Modifying user name:	WinNT
#	Modification time:	15. 06. 2019 20:03

#	Program:	/corina/corina34_cracker 3.40 0067  02.08.2006

@<TRIPOS>MOLECULE
ASD01914482
  64   70    0    0    0
SMALL
NO_CHARGES


@<TRIPOS>ATOM
   1 C1            -0.0187     1.5258     0.0104 C.3     
   2 C2             0.0021    -0.0041     0.0020 C.3     
   3 C3             0.7182    -0.4975    -1.2568 C.3     
   4 C4            -0.0218     0.0093    -2.4963 C.3     
   5 C5            -0.0425     1.5392    -2.4879 C.3     
   6 C6             1.3929     2.0688    -2.4988 C.3     
   7 C7             2.1328     1.5619    -1.2592 C.3     
   8 C8             1.4167     2.0553    -0.0004 C.3     
   9 C9             2.1536     0.0321    -1.2676 C.3     
  10 C10           -0.7587     2.0326    -1.2291 C.3     
  11 N11           -2.0128     2.9170     3.5154 N.ar    
  12 C12           -1.5375     3.7985     2.6574 C.ar    
  13 C13           -1.6728     5.1782     2.8725 C.ar    
  14 C14           -2.3092     5.6315     3.9917 C.ar    
  15 C15           -2.8132     4.6831     4.9017 C.ar    
  16 C16           -3.4787     5.0784     6.0728 C.ar    
  17 C17           -3.9534     4.1326     6.9297 C.ar    
  18 C18           -3.7880     2.7749     6.6609 C.ar    
  19 C19           -3.1485     2.3545     5.5363 C.ar    
  20 C20           -2.6431     3.3012     4.6251 C.ar    
  21 C21           -0.8434     3.3203     1.4375 C.2     
  22 O22           -0.4001     4.1204     0.6377 O.2     
  23 N23           -0.7044     1.9982     1.2158 N.am    
  24 N24            0.7842    -4.7626    -1.2946 N.ar    
  25 C25            1.3412    -4.1054    -2.2930 C.ar    
  26 C26            1.9519    -4.7765    -3.3628 C.ar    
  27 C27            1.9769    -6.1411    -3.3827 C.ar    
  28 C28            1.3797    -6.8339    -2.3126 C.ar    
  29 C29            1.3691    -8.2369    -2.2679 C.ar    
  30 C30            0.7825    -8.8730    -1.2165 C.ar    
  31 C31            0.1911    -8.1502    -0.1817 C.ar    
  32 C32            0.1821    -6.7899    -0.1910 C.ar    
  33 C33            0.7783    -6.0949    -1.2604 C.ar    
  34 C34            1.3211    -2.6228    -2.2848 C.2     
  35 O35            1.8302    -2.0033    -3.1977 O.2     
  36 N36            0.7381    -1.9623    -1.2648 N.am    
  37 H37            0.5293    -0.3651     0.8851 H       
  38 H38           -1.0205    -0.3814     0.0098 H       
  39 H39            0.4884    -0.3422    -3.3931 H       
  40 H40           -1.0444    -0.3679    -2.4886 H       
  41 H41           -0.5697     1.9003    -3.3710 H       
  42 H42            1.9030     1.7172    -3.3956 H       
  43 H43            1.3781     3.1587    -2.4928 H       
  44 H44            3.1554     1.9392    -1.2670 H       
  45 H45            1.4019     3.1452     0.0056 H       
  46 H46            1.9439     1.6943     0.8826 H       
  47 H47            2.6808    -0.3290    -0.3846 H       
  48 H48            2.6638    -0.3194    -2.1644 H       
  49 H49           -1.7813     1.6553    -1.2214 H       
  50 H50           -0.7734     3.1225    -1.2231 H       
  51 H51           -1.2743     5.8797     2.1546 H       
  52 H52           -2.4227     6.6899     4.1745 H       
  53 H53           -3.6132     6.1271     6.2931 H       
  54 H54           -4.4649     4.4387     7.8304 H       
  55 H55           -4.1736     2.0448     7.3570 H       
  56 H56           -3.0286     1.2986     5.3435 H       
  57 H57           -1.0583     1.3595     1.8542 H       
  58 H58            2.4009    -4.2150    -4.1688 H       
  59 H59            2.4421    -6.6752    -4.1980 H       
  60 H60            1.8235    -8.8089    -3.0634 H       
  61 H61            0.7750    -9.9525    -1.1841 H       
  62 H62           -0.2678    -8.6787     0.6407 H       
  63 H63           -0.2808    -6.2453     0.6187 H       
  64 H64            0.3316    -2.4569    -0.5361 H       
@<TRIPOS>BOND
   1    1    2 1
   2    1    8 1
   3    1   10 1
   4    1   23 1
   5    2    3 1
   6    2   37 1
   7    2   38 1
   8    3    4 1
   9    3    9 1
  10    3   36 1
  11    4    5 1
  12    4   39 1
  13    4   40 1
  14    5    6 1
  15    5   10 1
  16    5   41 1
  17    6    7 1
  18    6   42 1
  19    6   43 1
  20    7    8 1
  21    7    9 1
  22    7   44 1
  23    8   45 1
  24    8   46 1
  25    9   47 1
  26    9   48 1
  27   10   49 1
  28   10   50 1
  29   11   12 ar
  30   11   20 ar
  31   12   13 ar
  32   12   21 1
  33   13   14 ar
  34   13   51 1
  35   14   15 ar
  36   14   52 1
  37   15   16 ar
  38   15   20 ar
  39   16   17 ar
  40   16   53 1
  41   17   18 ar
  42   17   54 1
  43   18   19 ar
  44   18   55 1
  45   19   20 ar
  46   19   56 1
  47   21   22 2
  48   21   23 am
  49   23   57 1
  50   24   25 ar
  51   24   33 ar
  52   25   26 ar
  53   25   34 1
  54   26   27 ar
  55   26   58 1
  56   27   28 ar
  57   27   59 1
  58   28   29 ar
  59   28   33 ar
  60   29   30 ar
  61   29   60 1
  62   30   31 ar
  63   30   61 1
  64   31   32 ar
  65   31   62 1
  66   32   33 ar
  67   32   63 1
  68   34   35 2
  69   34   36 am
  70   36   64 1

#	End of record

