#	Name: ASD01900915
#	Creating user name:	WinNT
#	Creation time:	15. 06. 2019 19:52

#	Modifying user name:	WinNT
#	Modification time:	15. 06. 2019 19:52

#	Program:	/corina/corina34_cracker 3.40 0067  02.08.2006

@<TRIPOS>MOLECULE
ASD01900915
  43   45    0    0    0
SMALL
NO_CHARGES


@<TRIPOS>ATOM
   1 C1             0.2064     1.6553     0.2269 C.ar    
   2 C2             0.3413     0.2792     0.0544 C.ar    
   3 C3             1.5982    -0.2932     0.1674 C.ar    
   4 C4             2.6771     0.5305     0.4491 C.ar    
   5 C5             2.4696     1.8912     0.6082 C.ar    
   6 N6             1.2656     2.4086     0.4957 N.ar    
   7 C7            -1.1292     2.2835     0.1033 C.2     
   8 O8            -2.1017     1.5992    -0.1476 O.2     
   9 N9            -1.2661     3.6140     0.2691 N.am    
  10 S10           -2.8362     5.8727     0.3380 S.3     
  11 C11           -2.5184     4.2030     0.1532 C.2     
  12 N12           -3.6166     3.5668    -0.1117 N.2     
  13 C13           -4.7206     4.2862    -0.1863 C.2     
  14 C14           -4.5472     5.5924     0.0256 C.2     
  15 C15           -6.0679     3.6817    -0.4869 C.3     
  16 C16           -6.6891     3.1513     0.8068 C.3     
  17 S17           -5.8091     6.8218    -0.0022 S.o2    
  18 O18           -6.9653     6.1482     0.4759 O.2     
  19 O19           -5.2495     7.9146     0.7133 O.2     
  20 C20           -5.9958     7.2391    -1.7577 C.3     
  21 C21           -7.0606     8.2942    -1.9127 C.ar    
  22 C22           -6.7189     9.6340    -1.8689 C.ar    
  23 C23           -7.6968    10.6022    -2.0112 C.ar    
  24 C24           -9.0157    10.2317    -2.1967 C.ar    
  25 C25           -9.3588     8.8939    -2.2406 C.ar    
  26 C26           -8.3803     7.9233    -2.1045 C.ar    
  27 F27           -8.7145     6.6152    -2.1534 F       
  28 Cl28          -5.0632    10.1003    -1.6349 Cl      
  29 H29           -0.5215    -0.3326    -0.1639 H       
  30 H30            1.7342    -1.3569     0.0393 H       
  31 H31            3.6698     0.1156     0.5439 H       
  32 H32            3.3079     2.5357     0.8277 H       
  33 H33           -0.4899     4.1601     0.4694 H       
  34 H34           -6.7194     4.4420    -0.9177 H       
  35 H35           -5.9484     2.8619    -1.1953 H       
  36 H36           -7.6635     2.7140     0.5894 H       
  37 H37           -6.0376     2.3909     1.2376 H       
  38 H38           -6.8085     3.9711     1.5152 H       
  39 H39           -5.0496     7.6183    -2.1436 H       
  40 H40           -6.2841     6.3474    -2.3144 H       
  41 H41           -7.4297    11.6481    -1.9770 H       
  42 H42           -9.7784    10.9884    -2.3070 H       
  43 H43          -10.3893     8.6052    -2.3855 H       
@<TRIPOS>BOND
   1    1    2 ar
   2    1    6 ar
   3    1    7 1
   4    2    3 ar
   5    2   29 1
   6    3    4 ar
   7    3   30 1
   8    4    5 ar
   9    4   31 1
  10    5    6 ar
  11    5   32 1
  12    7    8 2
  13    7    9 am
  14    9   11 1
  15    9   33 1
  16   10   11 1
  17   10   14 1
  18   11   12 2
  19   12   13 1
  20   13   14 2
  21   13   15 1
  22   14   17 1
  23   15   16 1
  24   15   34 1
  25   15   35 1
  26   16   36 1
  27   16   37 1
  28   16   38 1
  29   17   18 2
  30   17   19 2
  31   17   20 1
  32   20   21 1
  33   20   39 1
  34   20   40 1
  35   21   22 ar
  36   21   26 ar
  37   22   23 ar
  38   22   28 1
  39   23   24 ar
  40   23   41 1
  41   24   25 ar
  42   24   42 1
  43   25   26 ar
  44   25   43 1
  45   26   27 1

#	End of record

