#	Name: ASD07930476
#	Creating user name:	WinNT
#	Creation time:	15. 06. 2019 21:12

#	Modifying user name:	WinNT
#	Modification time:	15. 06. 2019 21:12

#	Program:	/corina/corina34_cracker 3.40 0067  02.08.2006

@<TRIPOS>MOLECULE
ASD07930476
  44   46    0    0    0
SMALL
NO_CHARGES


@<TRIPOS>ATOM
   1 Cl1           -8.9665    -4.6676    -8.1402 Cl      
   2 C2            -0.0343     1.4582     0.0425 C.3     
   3 N3             0.7953    -0.4133    -2.1302 N.2     
   4 N4            -0.8904    -1.7835    -1.2685 N.pl3   
   5 C5            -0.9150    -2.8271    -0.2382 C.3     
   6 C6            -1.2300    -2.1885     1.1215 C.3     
   7 S7             0.0061    -0.8913     1.4435 S.o2    
   8 N8            -0.0141    -0.0067     0.0315 N.am    
   9 C9            -0.0113    -0.7260    -1.1551 C.2     
  10 C10            0.4500    -3.5153    -0.1755 C.3     
  11 C11           -1.9765    -3.8423    -0.5755 C.ar    
  12 C12           -2.8068    -3.6380    -1.6597 C.ar    
  13 C13           -3.7850    -4.5740    -1.9701 C.ar    
  14 C14           -3.9256    -5.7134    -1.1890 C.ar    
  15 C15           -3.0929    -5.9137    -0.1053 C.ar    
  16 C16           -2.1147    -4.9822     0.1989 C.ar    
  17 N17           -4.6278    -4.3689    -3.0681 N.am    
  18 C18           -5.0478    -5.4192    -3.8008 C.2     
  19 O19           -4.6185    -6.5324    -3.5690 O.2     
  20 O20           -0.4577     0.0117     2.4378 O.2     
  21 O21            1.3140    -1.4440     1.5004 O.2     
  22 F22           -1.3013    -5.1800     1.2593 F       
  23 C23           -6.0320    -5.2170    -4.8881 C.ar    
  24 C24           -6.4675    -6.3024    -5.6471 C.ar    
  25 N25           -7.3462    -6.1179    -6.6161 N.ar    
  26 C26           -7.8119    -4.9059    -6.8659 C.ar    
  27 C27           -7.3790    -3.8222    -6.1111 C.ar    
  28 N28           -6.5073    -3.9997    -5.1398 N.ar    
  29 H29            0.9882     1.8357     0.0394 H       
  30 H30           -0.5582     1.8209    -0.8419 H       
  31 H31           -0.5480     1.8078     0.9380 H       
  32 H32            1.4070     0.3331    -2.0331 H       
  33 H33           -1.4884    -1.8387    -2.0302 H       
  34 H34           -2.2270    -1.7484     1.0987 H       
  35 H35           -1.1800    -2.9460     1.9037 H       
  36 H36            1.2165    -2.7804     0.0704 H       
  37 H37            0.4311    -4.2908     0.5903 H       
  38 H38            0.6749    -3.9651    -1.1426 H       
  39 H39           -2.6960    -2.7510    -2.2657 H       
  40 H40           -4.6858    -6.4423    -1.4284 H       
  41 H41           -3.2021    -6.7996     0.5027 H       
  42 H42           -4.9098    -3.4707    -3.3019 H       
  43 H43           -6.0869    -7.2923    -5.4434 H       
  44 H44           -7.7614    -2.8336    -6.3183 H       
@<TRIPOS>BOND
   1    1   26 1
   2    2    8 1
   3    2   29 1
   4    2   30 1
   5    2   31 1
   6    3    9 2
   7    3   32 1
   8    4    5 1
   9    4    9 1
  10    4   33 1
  11    5    6 1
  12    5   10 1
  13    5   11 1
  14    6    7 1
  15    6   34 1
  16    6   35 1
  17    7    8 am
  18    7   20 2
  19    7   21 2
  20    8    9 1
  21   10   36 1
  22   10   37 1
  23   10   38 1
  24   11   12 ar
  25   11   16 ar
  26   12   13 ar
  27   12   39 1
  28   13   14 ar
  29   13   17 1
  30   14   15 ar
  31   14   40 1
  32   15   16 ar
  33   15   41 1
  34   16   22 1
  35   17   18 am
  36   17   42 1
  37   18   19 2
  38   18   23 1
  39   23   24 ar
  40   23   28 ar
  41   24   25 ar
  42   24   43 1
  43   25   26 ar
  44   26   27 ar
  45   27   28 ar
  46   27   44 1

#	End of record

