#	Name: ASD05260004
#	Creating user name:	WinNT
#	Creation time:	15. 06. 2019 20:58

#	Modifying user name:	WinNT
#	Modification time:	15. 06. 2019 20:58

#	Program:	/corina/corina34_cracker 3.40 0067  02.08.2006

@<TRIPOS>MOLECULE
ASD05260004
  30   31    0    0    0
SMALL
NO_CHARGES


@<TRIPOS>ATOM
   1 O1            -0.0164     1.3548     0.0095 O.3     
   2 C2             0.0021    -0.0041     0.0020 C.ar    
   3 C3             0.0229    -0.7016     1.1979 C.ar    
   4 C4             0.0418    -2.0983     1.1889 C.ar    
   5 C5             0.0636    -2.8457     2.4591 C.2     
   6 C6             0.0817    -4.1882     2.4479 C.2     
   7 C7             0.1034    -4.9354     3.7176 C.ar    
   8 C8             0.1052    -4.2486     4.9345 C.ar    
   9 C9             0.1250    -4.9502     6.1219 C.ar    
  10 C10            0.1438    -6.3370     6.1117 C.ar    
  11 C11            0.1422    -7.0287     4.9019 C.ar    
  12 C12            0.1165    -6.3333     3.7081 C.ar    
  13 O13            0.1606    -8.3886     4.8963 O.3     
  14 O14            0.1642    -7.0232     7.2850 O.3     
  15 C15            0.0396    -2.7844    -0.0278 C.ar    
  16 C16            0.0187    -2.0777    -1.2184 C.ar    
  17 C17           -0.0057    -0.6903    -1.2041 C.ar    
  18 O18            0.0170    -2.7440    -2.4029 O.3     
  19 H19            0.8616     1.7601     0.0033 H       
  20 H20            0.0249    -0.1667     2.1362 H       
  21 H21            0.0649    -2.3135     3.3988 H       
  22 H22            0.0804    -4.7205     1.5081 H       
  23 H23            0.0913    -3.1688     4.9453 H       
  24 H24            0.1263    -4.4183     7.0618 H       
  25 H25            0.1153    -6.8683     2.7699 H       
  26 H26           -0.7173    -8.7938     4.9027 H       
  27 H27           -0.7131    -7.2338     7.6328 H       
  28 H28            0.0546    -3.8642    -0.0400 H       
  29 H29           -0.0220    -0.1427    -2.1348 H       
  30 H30           -0.8667    -2.9492    -2.7375 H       
@<TRIPOS>BOND
   1    1    2 1
   2    1   19 1
   3    2    3 ar
   4    2   17 ar
   5    3    4 ar
   6    3   20 1
   7    4    5 1
   8    4   15 ar
   9    5    6 2
  10    5   21 1
  11    6    7 1
  12    6   22 1
  13    7    8 ar
  14    7   12 ar
  15    8    9 ar
  16    8   23 1
  17    9   10 ar
  18    9   24 1
  19   10   11 ar
  20   10   14 1
  21   11   12 ar
  22   11   13 1
  23   12   25 1
  24   13   26 1
  25   14   27 1
  26   15   16 ar
  27   15   28 1
  28   16   17 ar
  29   16   18 1
  30   17   29 1
  31   18   30 1

#	End of record

