#	Name: ASD01883772
#	Creating user name:	WinNT
#	Creation time:	15. 06. 2019 19:47

#	Modifying user name:	WinNT
#	Modification time:	15. 06. 2019 19:47

#	Program:	/corina/corina34_cracker 3.40 0067  02.08.2006

@<TRIPOS>MOLECULE
ASD01883772
  46   50    0    0    0
SMALL
NO_CHARGES


@<TRIPOS>ATOM
   1 C1            -0.0169     1.3979     0.0097 C.2     
   2 C2             0.0021    -0.0041     0.0020 C.2     
   3 C3            -1.2219    -0.7047     0.0099 C.2     
   4 C4            -2.3969    -0.0477     0.0242 C.2     
   5 N5            -2.4615     1.3153     0.0321 N.pl3   
   6 C6            -1.3172     2.0713     0.0319 C.2     
   7 C7            -3.5156     2.1914     0.0460 C.2     
   8 C8            -2.9977     3.4379     0.0476 C.2     
   9 N9            -1.6638     3.3458     0.0400 N.2     
  10 C10           -4.9787     1.8305     0.0568 C.3     
  11 C11            1.2863    -0.7371    -0.0146 C.ar    
  12 C12            1.6481    -1.5296     1.0696 C.ar    
  13 C13            2.8608    -2.2155     1.0410 C.ar    
  14 C14            3.7072    -2.1024    -0.0788 C.ar    
  15 C15            3.3249    -1.3036    -1.1536 C.ar    
  16 C16            2.1350    -0.6372    -1.1252 C.ar    
  17 C17           -5.5164     1.8381    -1.3756 C.3     
  18 F18           -4.8116     0.9048    -2.1433 F       
  19 F19           -6.8747     1.5030    -1.3655 F       
  20 F20           -5.3548     3.1134    -1.9276 F       
  21 C21            1.2014     2.1503     0.0021 C.1     
  22 C22            3.5435    -3.1137     1.9770 C.2     
  23 C23            4.7012    -3.4737     1.4016 C.2     
  24 N24            4.8170    -2.8793     0.1724 N.pl3   
  25 N25            2.1679     2.7473    -0.0039 N.1     
  26 C26            5.9016    -3.0385    -0.6993 C.ar    
  27 C27            7.1988    -2.8658    -0.2347 C.ar    
  28 C28            8.2662    -3.0235    -1.0968 C.ar    
  29 C29            8.0442    -3.3524    -2.4215 C.ar    
  30 C30            6.7537    -3.5246    -2.8873 C.ar    
  31 C31            5.6823    -3.3749    -2.0286 C.ar    
  32 H32           -1.2165    -1.7847     0.0040 H       
  33 H33           -3.3152    -0.6160     0.0291 H       
  34 H34           -3.5659     4.3563     0.0571 H       
  35 H35           -5.1046     0.8369     0.4869 H       
  36 H36           -5.5278     2.5576     0.6549 H       
  37 H37            0.9953    -1.6124     1.9260 H       
  38 H38            3.9711    -1.2143    -2.0143 H       
  39 H39            1.8475    -0.0206    -1.9639 H       
  40 H40            3.1832    -3.4263     2.9460 H       
  41 H41            5.4336    -4.1339     1.8424 H       
  42 H42            7.3727    -2.6082     0.7996 H       
  43 H43            9.2753    -2.8893    -0.7360 H       
  44 H44            8.8806    -3.4748    -3.0937 H       
  45 H45            6.5835    -3.7812    -3.9225 H       
  46 H46            4.6746    -3.5098    -2.3929 H       
@<TRIPOS>BOND
   1    1    2 2
   2    1   21 1
   3    1    6 1
   4    2    3 1
   5    2   11 1
   6    3    4 2
   7    3   32 1
   8    4    5 1
   9    4   33 1
  10    5    6 1
  11    5    7 1
  12    6    9 2
  13    7    8 2
  14    7   10 1
  15    8    9 1
  16    8   34 1
  17   10   17 1
  18   10   35 1
  19   10   36 1
  20   11   12 ar
  21   11   16 ar
  22   12   13 ar
  23   12   37 1
  24   13   14 ar
  25   13   22 1
  26   14   15 ar
  27   14   24 1
  28   15   16 ar
  29   15   38 1
  30   16   39 1
  31   17   18 1
  32   17   19 1
  33   17   20 1
  34   21   25 3
  35   22   23 2
  36   22   40 1
  37   23   24 1
  38   23   41 1
  39   24   26 1
  40   26   27 ar
  41   26   31 ar
  42   27   28 ar
  43   27   42 1
  44   28   29 ar
  45   28   43 1
  46   29   30 ar
  47   29   44 1
  48   30   31 ar
  49   30   45 1
  50   31   46 1

#	End of record

