#	Name: ASD01910494
#	Creating user name:	WinNT
#	Creation time:	15. 06. 2019 19:55

#	Modifying user name:	WinNT
#	Modification time:	15. 06. 2019 19:55

#	Program:	/corina/corina34_cracker 3.40 0067  02.08.2006

@<TRIPOS>MOLECULE
ASD01910494
  47   49    0    0    0
SMALL
NO_CHARGES


@<TRIPOS>ATOM
   1 C1            -0.0187     1.5282     0.0104 C.3     
   2 C2             0.0021    -0.0041     0.0020 C.3     
   3 C3             0.6753    -0.4852     1.2874 C.3     
   4 C4             2.0868     0.0448     1.3980 C.3     
   5 C5             2.1667     1.5757     1.2533 C.3     
   6 C6             1.4208     2.0368    -0.0006 C.3     
   7 N7             2.9838    -0.4965     0.3737 N.am    
   8 C8             4.0096     0.5216     0.0840 C.3     
   9 C9             3.6875     1.7544     0.9575 C.3     
  10 O10            2.0895     1.5323    -1.1583 O.3     
  11 C11            1.4147     3.5660    -0.0496 C.3     
  12 C12            2.8882    -1.7115    -0.2018 C.2     
  13 O13            1.9942    -2.4682     0.1215 O.2     
  14 C14            0.5589     5.5412    -1.2806 C.ar    
  15 C15            1.5248     6.2134    -2.0060 C.ar    
  16 C16           -0.4158     6.2505    -0.6041 C.ar    
  17 C17           -0.4247     7.6320    -0.6531 C.ar    
  18 C18            0.5414     8.3041    -1.3781 C.ar    
  19 C19            1.5159     7.5948    -2.0550 C.ar    
  20 C20            0.5650     4.0350    -1.2324 C.3     
  21 O21            3.7832    -2.0866    -1.1350 O.3     
  22 C22            3.6189    -3.4088    -1.7122 C.3     
  23 H23           -0.5418     1.8917    -0.8741 H       
  24 H24           -0.5247     1.8821     0.9086 H       
  25 H25           -1.0183    -0.3847    -0.0425 H       
  26 H26            0.5645    -0.3587    -0.8617 H       
  27 H27            0.0963    -0.1407     2.1443 H       
  28 H28            0.7017    -1.5749     1.2904 H       
  29 H29            2.4860    -0.2314     2.3740 H       
  30 H30            1.8356     2.0992     2.1502 H       
  31 H31            4.9972     0.1357     0.3367 H       
  32 H32            3.9740     0.7946    -0.9706 H       
  33 H33            3.8682     2.6770     0.4058 H       
  34 H34            4.2659     1.7355     1.8812 H       
  35 H35            1.6732     1.7842    -1.9940 H       
  36 H36            0.9951     3.9576     0.8771 H       
  37 H37            2.4353     3.9298    -0.1685 H       
  38 H38            2.2866     5.6592    -2.5343 H       
  39 H39           -1.1706     5.7254    -0.0376 H       
  40 H40           -1.1866     8.1861    -0.1251 H       
  41 H41            0.5340     9.3834    -1.4170 H       
  42 H42            2.2709     8.1200    -2.6212 H       
  43 H43            0.9846     3.6435    -2.1590 H       
  44 H44           -0.4556     3.6712    -1.1134 H       
  45 H45            3.6846    -4.1597    -0.9248 H       
  46 H46            2.6449    -3.4751    -2.1971 H       
  47 H47            4.4037    -3.5842    -2.4479 H       
@<TRIPOS>BOND
   1    1    2 1
   2    1    6 1
   3    1   23 1
   4    1   24 1
   5    2    3 1
   6    2   25 1
   7    2   26 1
   8    3    4 1
   9    3   27 1
  10    3   28 1
  11    4    5 1
  12    4    7 1
  13    4   29 1
  14    5    6 1
  15    5    9 1
  16    5   30 1
  17    6   10 1
  18    6   11 1
  19    7    8 1
  20    7   12 am
  21    8    9 1
  22    8   31 1
  23    8   32 1
  24    9   33 1
  25    9   34 1
  26   10   35 1
  27   11   20 1
  28   11   36 1
  29   11   37 1
  30   12   21 1
  31   12   13 2
  32   14   15 ar
  33   14   16 ar
  34   14   20 1
  35   15   19 ar
  36   15   38 1
  37   16   17 ar
  38   16   39 1
  39   17   18 ar
  40   17   40 1
  41   18   19 ar
  42   18   41 1
  43   19   42 1
  44   20   43 1
  45   20   44 1
  46   21   22 1
  47   22   45 1
  48   22   46 1
  49   22   47 1

#	End of record

