#	Name: ASD03731491
#	Creating user name:	WinNT
#	Creation time:	15. 06. 2019 20:45

#	Modifying user name:	WinNT
#	Modification time:	15. 06. 2019 20:45

#	Program:	/corina/corina34_cracker 3.40 0067  02.08.2006

@<TRIPOS>MOLECULE
ASD03731491
  65   72    0    0    0
SMALL
NO_CHARGES


@<TRIPOS>ATOM
   1 C1            -0.2014     0.8507     1.7266 C.2     
   2 C2            -0.0822    -0.2924     0.7901 C.ar    
   3 C3            -1.0139    -0.9484    -0.0065 C.ar    
   4 C4            -0.6230    -2.0119    -0.8046 C.ar    
   5 C5             0.6903    -2.4299    -0.8169 C.ar    
   6 C6             1.6437    -1.7837    -0.0223 C.ar    
   7 C7             1.2586    -0.7070     0.7874 C.ar    
   8 C8             2.0267     0.1570     1.7184 C.ar    
   9 C9             3.3680     0.1697     2.0777 C.ar    
  10 C10            3.8328     1.1045     2.9898 C.ar    
  11 C11            2.9696     2.0277     3.5469 C.ar    
  12 C12            1.6282     2.0279     3.1991 C.ar    
  13 C13            1.1496     1.0968     2.2860 C.ar    
  14 C14            3.0503    -2.2349    -0.0369 C.2     
  15 O15            3.9486    -1.4214    -0.1329 O.2     
  16 N16            3.3378    -3.5483     0.0561 N.am    
  17 C17            4.7328    -3.9957     0.0415 C.3     
  18 C18            4.7806    -5.5204     0.1597 C.3     
  19 C19            6.2375    -5.9876     0.1445 C.3     
  20 O20            1.5854   -11.2401    -1.4241 O.3     
  21 C21            1.2173   -12.6268    -1.5451 C.3     
  22 O22            2.4076   -13.2534    -2.0583 O.3     
  23 C23            3.4447   -12.4755    -1.6292 C.ar    
  24 C24            2.9386   -11.2373    -1.2403 C.ar    
  25 C25            4.8015   -12.7282    -1.5364 C.ar    
  26 C26            5.6695   -11.7514    -1.0577 C.ar    
  27 C27            5.1533   -10.5156    -0.6801 C.ar    
  28 C28            3.8001   -10.2626    -0.7656 C.ar    
  29 O29            7.0199   -11.8002    -0.8724 O.3     
  30 C30            6.3241    -9.6778    -0.2404 C.3     
  31 C31            7.5343   -10.4583    -0.7712 C.3     
  32 N32            6.2833    -7.4475     0.2577 N.am    
  33 C33            6.2676    -8.2850    -0.7985 C.2     
  34 C34            6.3773    -9.5079     1.2489 C.ar    
  35 C35            6.4418   -10.3888     2.3053 C.ar    
  36 C36            6.4806    -9.9122     3.6036 C.ar    
  37 C37            6.4538    -8.5493     3.8376 C.ar    
  38 C38            6.3882    -7.6630     2.7828 C.ar    
  39 C39            6.3492    -8.1338     1.4726 C.ar    
  40 O40            6.2180    -7.9743    -1.9698 O.2     
  41 O41           -1.2129     1.4713     1.9830 O.2     
  42 H42           -2.0454    -0.6285    -0.0030 H       
  43 H43           -1.3524    -2.5167    -1.4208 H       
  44 H44            0.9846    -3.2599    -1.4421 H       
  45 H45            4.0492    -0.5491     1.6468 H       
  46 H46            4.8766     1.1107     3.2669 H       
  47 H47            3.3415     2.7519     4.2566 H       
  48 H48            0.9559     2.7508     3.6372 H       
  49 H49            2.6211    -4.1974     0.1327 H       
  50 H50            5.2030    -3.6887    -0.8927 H       
  51 H51            5.2663    -3.5493     0.8807 H       
  52 H52            4.3104    -5.8273     1.0939 H       
  53 H53            4.2471    -5.9668    -0.6794 H       
  54 H54            6.7077    -5.6806    -0.7897 H       
  55 H55            6.7710    -5.5412     0.9837 H       
  56 H56            0.9565   -13.0402    -0.5708 H       
  57 H57            0.3904   -12.7438    -2.2456 H       
  58 H58            5.1899   -13.6899    -1.8376 H       
  59 H59            3.4115    -9.3019    -0.4618 H       
  60 H60            8.3636   -10.4138    -0.0652 H       
  61 H61            7.8370   -10.0849    -1.7495 H       
  62 H62            6.4624   -11.4526     2.1202 H       
  63 H63            6.5321   -10.6028     4.4323 H       
  64 H64            6.4840    -8.1774     4.8511 H       
  65 H65            6.3671    -6.6002     2.9736 H       
@<TRIPOS>BOND
   1    1    2 1
   2    1   13 1
   3    1   41 2
   4    2    3 ar
   5    2    7 ar
   6    3    4 ar
   7    3   42 1
   8    4    5 ar
   9    4   43 1
  10    5    6 ar
  11    5   44 1
  12    6    7 ar
  13    6   14 1
  14    7    8 1
  15    8    9 ar
  16    8   13 ar
  17    9   10 ar
  18    9   45 1
  19   10   11 ar
  20   10   46 1
  21   11   12 ar
  22   11   47 1
  23   12   13 ar
  24   12   48 1
  25   14   15 2
  26   14   16 am
  27   16   17 1
  28   16   49 1
  29   17   18 1
  30   17   50 1
  31   17   51 1
  32   18   19 1
  33   18   52 1
  34   18   53 1
  35   19   32 1
  36   19   54 1
  37   19   55 1
  38   20   21 1
  39   20   24 1
  40   21   22 1
  41   21   56 1
  42   21   57 1
  43   22   23 1
  44   23   24 ar
  45   23   25 ar
  46   24   28 ar
  47   25   26 ar
  48   25   58 1
  49   26   27 ar
  50   26   29 1
  51   27   28 ar
  52   27   30 1
  53   28   59 1
  54   29   31 1
  55   30   31 1
  56   30   33 1
  57   30   34 1
  58   31   60 1
  59   31   61 1
  60   32   33 am
  61   32   39 1
  62   33   40 2
  63   34   35 ar
  64   34   39 ar
  65   35   36 ar
  66   35   62 1
  67   36   37 ar
  68   36   63 1
  69   37   38 ar
  70   37   64 1
  71   38   39 ar
  72   38   65 1

#	End of record

