#	Name: ASD03092409
#	Creating user name:	WinNT
#	Creation time:	15. 06. 2019 20:32

#	Modifying user name:	WinNT
#	Modification time:	15. 06. 2019 20:32

#	Program:	/corina/corina34_cracker 3.40 0067  02.08.2006

@<TRIPOS>MOLECULE
ASD03092409
  46   48    0    0    0
SMALL
NO_CHARGES


@<TRIPOS>ATOM
   1 C1             0.3377     2.0152     0.1444 C.2     
   2 C2             0.5539     0.5260     0.2241 C.3     
   3 C3             2.0546     0.2276     0.2206 C.3     
   4 O4             1.2900     2.7643     0.0901 O.2     
   5 N5            -0.9141     2.5144     0.1278 N.am    
   6 C6            -1.1244     3.9622     0.0503 C.3     
   7 S7            -4.9835     4.7562    -0.6387 S.3     
   8 C8            -4.5799     4.6083     1.0157 C.2     
   9 N9            -3.3134     4.3515     1.1494 N.2     
  10 C10           -2.6026     4.2556     0.0469 C.2     
  11 C11           -3.3091     4.4424    -1.0876 C.2     
  12 C12           -2.5485     5.3138    -4.6606 C.ar    
  13 C13           -3.0708     5.4006    -3.3883 C.ar    
  14 C14           -2.7735     4.3920    -2.4620 C.ar    
  15 C15           -1.9532     3.3345    -2.8772 C.ar    
  16 C16           -1.4749     3.3281    -4.1696 C.ar    
  17 N17           -1.7794     4.2994    -5.0103 N.ar    
  18 N18           -5.4737     4.7431     2.0624 N.3     
  19 C19           -6.8269     5.0319     1.5657 C.3     
  20 C20           -7.7929     5.1139     2.7507 C.3     
  21 O21           -7.3297     6.1076     3.6690 O.3     
  22 C22           -6.0150     5.8575     4.1732 C.3     
  23 C23           -5.0310     5.7830     3.0027 C.3     
  24 C24           -0.0699    -0.0117     1.5135 C.3     
  25 H25            0.0858     0.0444    -0.6344 H       
  26 H26            2.5227     0.7092     1.0791 H       
  27 H27            2.2110    -0.8495     0.2783 H       
  28 H28            2.4990     0.6107    -0.6980 H       
  29 H29           -1.6758     1.9151     0.1671 H       
  30 H30           -0.6604     4.4433     0.9113 H       
  31 H31           -0.6757     4.3460    -0.8659 H       
  32 H32           -2.7754     6.0838    -5.3831 H       
  33 H33           -3.6989     6.2336    -3.1092 H       
  34 H34           -1.6994     2.5369    -2.1947 H       
  35 H35           -0.8419     2.5174    -4.4991 H       
  36 H36           -6.8237     5.9824     1.0323 H       
  37 H37           -7.1446     4.2365     0.8916 H       
  38 H38           -8.7863     5.3841     2.3924 H       
  39 H39           -7.8367     4.1471     3.2521 H       
  40 H40           -5.7225     6.6655     4.8437 H       
  41 H41           -6.0071     4.9123     4.7160 H       
  42 H42           -4.0377     5.5359     3.3773 H       
  43 H43           -4.9991     6.7455     2.4922 H       
  44 H44            0.0865    -1.0889     1.5712 H       
  45 H45            0.3982     0.4699     2.3720 H       
  46 H46           -1.1390     0.2008     1.5160 H       
@<TRIPOS>BOND
   1    1    2 1
   2    1    4 2
   3    1    5 am
   4    2    3 1
   5    2   24 1
   6    2   25 1
   7    3   26 1
   8    3   27 1
   9    3   28 1
  10    5    6 1
  11    5   29 1
  12    6   10 1
  13    6   30 1
  14    6   31 1
  15    7    8 1
  16    7   11 1
  17    8    9 2
  18    8   18 1
  19    9   10 1
  20   10   11 2
  21   11   14 1
  22   12   13 ar
  23   12   17 ar
  24   12   32 1
  25   13   14 ar
  26   13   33 1
  27   14   15 ar
  28   15   16 ar
  29   15   34 1
  30   16   17 ar
  31   16   35 1
  32   18   19 1
  33   18   23 1
  34   19   20 1
  35   19   36 1
  36   19   37 1
  37   20   21 1
  38   20   38 1
  39   20   39 1
  40   21   22 1
  41   22   23 1
  42   22   40 1
  43   22   41 1
  44   23   42 1
  45   23   43 1
  46   24   44 1
  47   24   45 1
  48   24   46 1

#	End of record

