#	Name: ASD01142022
#	Creating user name:	WinNT
#	Creation time:	15. 06. 2019 19:01

#	Modifying user name:	WinNT
#	Modification time:	15. 06. 2019 19:01

#	Program:	/corina/corina34_cracker 3.40 0067  02.08.2006

@<TRIPOS>MOLECULE
ASD01142022
  33   35    0    0    0
SMALL
NO_CHARGES


@<TRIPOS>ATOM
   1 C1             0.3019     1.7817     0.5685 C.ar    
   2 C2             0.1645     0.4038     0.5811 C.ar    
   3 C3             1.2637    -0.3997     0.3832 C.ar    
   4 C4             2.5298     0.1650     0.1673 C.ar    
   5 C5             2.6654     1.5520     0.1560 C.ar    
   6 C6             1.5386     2.3512     0.3578 C.ar    
   7 C7             3.6601    -0.7538    -0.0401 C.2     
   8 N8             4.6027    -0.5786    -0.8971 N.2     
   9 C9             4.6438     0.5934    -1.7707 C.3     
  10 C10            4.8035     1.8267    -0.9242 C.2     
  11 N11            3.8758     2.1970    -0.0449 N.am    
  12 C12            4.1552     3.3792     0.7741 C.3     
  13 O13            5.8044     2.5007    -1.0454 O.2     
  14 C14            3.7168    -1.9715     0.8017 C.ar    
  15 C15            3.0641    -2.0020     2.0338 C.ar    
  16 C16            3.1201    -3.1393     2.8131 C.ar    
  17 C17            3.8220    -4.2479     2.3745 C.ar    
  18 C18            4.4715    -4.2237     1.1532 C.ar    
  19 C19            4.4183    -3.0941     0.3626 C.ar    
  20 H20           -0.5627     2.4110     0.7196 H       
  21 H21           -0.8059    -0.0403     0.7468 H       
  22 H22            1.1510    -1.4738     0.3944 H       
  23 H23            1.6375     3.4266     0.3491 H       
  24 H24            5.4877     0.5089    -2.4555 H       
  25 H25            3.7157     0.6582    -2.3386 H       
  26 H26            5.1336     3.7808     0.5105 H       
  27 H27            3.3913     4.1354     0.5931 H       
  28 H28            4.1486     3.1009     1.8279 H       
  29 H29            2.5161    -1.1371     2.3774 H       
  30 H30            2.6154    -3.1639     3.7676 H       
  31 H31            3.8634    -5.1356     2.9882 H       
  32 H32            5.0182    -5.0921     0.8163 H       
  33 H33            4.9257    -3.0765    -0.5906 H       
@<TRIPOS>BOND
   1    1    2 ar
   2    1    6 ar
   3    1   20 1
   4    2    3 ar
   5    2   21 1
   6    3    4 ar
   7    3   22 1
   8    4    5 ar
   9    4    7 1
  10    5    6 ar
  11    5   11 1
  12    6   23 1
  13    7    8 2
  14    7   14 1
  15    8    9 1
  16    9   10 1
  17    9   24 1
  18    9   25 1
  19   10   11 am
  20   10   13 2
  21   11   12 1
  22   12   26 1
  23   12   27 1
  24   12   28 1
  25   14   15 ar
  26   14   19 ar
  27   15   16 ar
  28   15   29 1
  29   16   17 ar
  30   16   30 1
  31   17   18 ar
  32   17   31 1
  33   18   19 ar
  34   18   32 1
  35   19   33 1

#	End of record

