#	Name: ASD05730141
#	Creating user name:	WinNT
#	Creation time:	15. 06. 2019 21:02

#	Modifying user name:	WinNT
#	Modification time:	15. 06. 2019 21:02

#	Program:	/corina/corina34_cracker 3.40 0067  02.08.2006

@<TRIPOS>MOLECULE
ASD05730141
  77   82    0    0    0
SMALL
NO_CHARGES


@<TRIPOS>ATOM
   1 C1             0.0148     1.5028     0.0507 C.3     
   2 C2             0.0265    -0.0041     0.0317 C.ar    
   3 C3            -1.1611    -0.7045     0.1380 C.ar    
   4 C4            -1.1540    -2.0854     0.1209 C.ar    
   5 C5             0.0477    -2.7707    -0.0037 C.ar    
   6 C6             1.2388    -2.0641    -0.1107 C.ar    
   7 C7             1.2241    -0.6832    -0.0978 C.ar    
   8 N8             0.0586    -4.1686    -0.0209 N.pl3   
   9 C9             0.9768    -4.8428    -0.8028 C.ar    
  10 N10            1.0412    -6.1626    -0.7161 N.ar    
  11 C11            1.9107    -6.8455    -1.4522 C.ar    
  12 C12            2.7627    -6.1367    -2.3268 C.ar    
  13 C13            2.6553    -4.7389    -2.3820 C.ar    
  14 N14            1.7588    -4.1436    -1.6179 N.ar    
  15 N15            1.9846    -8.2130    -1.3685 N.am    
  16 C16            2.8688    -8.9004    -2.1167 C.2     
  17 C17            3.7673    -8.1958    -3.0336 C.2     
  18 C18            3.6996    -6.8314    -3.1253 C.2     
  19 C19            1.0930    -8.9327    -0.4557 C.3     
  20 O20            2.9217   -10.1142    -2.0299 O.2     
  21 C21            4.7400    -8.9529    -3.8559 C.ar    
  22 O22            1.1846     1.9809     0.7203 O.3     
  23 C23           -0.1985    -9.3007    -1.1888 C.3     
  24 C24            1.2812     3.4072     0.7626 C.3     
  25 C25            5.7758    -9.6573    -3.2434 C.ar    
  26 C26            4.6199    -8.9683    -5.2454 C.ar    
  27 C27            5.5287    -9.6750    -6.0058 C.ar    
  28 C28            6.5575   -10.3678    -5.3925 C.ar    
  29 C29            6.6787   -10.3606    -4.0147 C.ar    
  30 C30           -1.5463    -9.1489     0.8169 C.3     
  31 N31           -1.0925   -10.0224    -0.2735 N.3     
  32 C32            0.0034     2.0321    -1.3858 C.3     
  33 N33            0.0700     3.5005    -1.3621 N.3     
  34 C34            1.2827     3.9558    -0.6667 C.3     
  35 C35            0.0042     4.0526    -2.7218 C.3     
  36 C36           -2.2343   -10.5975    -0.9972 C.3     
  37 S37            5.3786    -9.6957    -7.7612 S.o2    
  38 C38            6.3126    -8.3361    -8.3807 C.2     
  39 S39            5.7094    -6.7036    -8.6558 S.3     
  40 C40            7.6052    -8.3595    -8.7194 C.2     
  41 N41            8.0761    -7.2094    -9.1577 N.2     
  42 C42            7.2534    -6.2167    -9.2056 C.2     
  43 O43            6.0391   -10.8724    -8.2066 O.2     
  44 O44            4.0166    -9.4121    -8.0509 O.2     
  45 H45           -0.8739     1.8533     0.5755 H       
  46 H46           -2.0952    -0.1711     0.2348 H       
  47 H47           -2.0818    -2.6319     0.2047 H       
  48 H48            2.1749    -2.5939    -0.2077 H       
  49 H49            2.1498    -0.1331    -0.1810 H       
  50 H50           -0.5786    -4.6652     0.5161 H       
  51 H51            3.2900    -4.1626    -3.0389 H       
  52 H52            4.3539    -6.2938    -3.7956 H       
  53 H53            1.5851    -9.8412    -0.1083 H       
  54 H54            0.8577    -8.2977     0.3984 H       
  55 H55           -0.6906    -8.3922    -1.5362 H       
  56 H56            0.0368    -9.9358    -2.0429 H       
  57 H57            0.4293     3.8137     1.3076 H       
  58 H58            2.2056     3.6946     1.2637 H       
  59 H59            5.8714    -9.6524    -2.1677 H       
  60 H60            3.8168    -8.4285    -5.7251 H       
  61 H61            7.2660   -10.9202    -5.9919 H       
  62 H62            7.4840   -10.9029    -3.5417 H       
  63 H63           -2.0854    -8.2980     0.4004 H       
  64 H64           -2.2066    -9.7083     1.4797 H       
  65 H65           -0.6837    -8.7923     1.3798 H       
  66 H66            0.8640     1.6374    -1.9260 H       
  67 H67           -0.9144     1.7173    -1.8824 H       
  68 H68            1.2986     5.0453    -0.6384 H       
  69 H69            2.1637     3.5919    -1.1954 H       
  70 H70           -0.9330     3.7528    -3.1907 H       
  71 H71            0.0555     5.1404    -2.6751 H       
  72 H72            0.8413     3.6742    -3.3085 H       
  73 H73           -2.7983    -9.7991    -1.4794 H       
  74 H74           -1.8717   -11.2940    -1.7532 H       
  75 H75           -2.8800   -11.1261    -0.2960 H       
  76 H76            8.2139    -9.2481    -8.6403 H       
  77 H77            7.5040    -5.2218    -9.5430 H       
@<TRIPOS>BOND
   1    1    2 1
   2    1   22 1
   3    1   32 1
   4    1   45 1
   5    2    3 ar
   6    2    7 ar
   7    3    4 ar
   8    3   46 1
   9    4    5 ar
  10    4   47 1
  11    5    6 ar
  12    5    8 1
  13    6    7 ar
  14    6   48 1
  15    7   49 1
  16    8    9 1
  17    8   50 1
  18    9   10 ar
  19    9   14 ar
  20   10   11 ar
  21   11   12 ar
  22   11   15 1
  23   12   13 ar
  24   12   18 1
  25   13   14 ar
  26   13   51 1
  27   15   16 am
  28   15   19 1
  29   16   17 1
  30   16   20 2
  31   17   18 2
  32   17   21 1
  33   18   52 1
  34   19   23 1
  35   19   53 1
  36   19   54 1
  37   21   25 ar
  38   21   26 ar
  39   22   24 1
  40   23   31 1
  41   23   55 1
  42   23   56 1
  43   24   34 1
  44   24   57 1
  45   24   58 1
  46   25   29 ar
  47   25   59 1
  48   26   27 ar
  49   26   60 1
  50   27   28 ar
  51   27   37 1
  52   28   29 ar
  53   28   61 1
  54   29   62 1
  55   30   31 1
  56   30   63 1
  57   30   64 1
  58   30   65 1
  59   31   36 1
  60   32   33 1
  61   32   66 1
  62   32   67 1
  63   33   34 1
  64   33   35 1
  65   34   68 1
  66   34   69 1
  67   35   70 1
  68   35   71 1
  69   35   72 1
  70   36   73 1
  71   36   74 1
  72   36   75 1
  73   37   38 1
  74   37   43 2
  75   37   44 2
  76   38   39 1
  77   38   40 2
  78   39   42 1
  79   40   41 1
  80   40   76 1
  81   41   42 2
  82   42   77 1

#	End of record

