#	Name: ASD02030667
#	Creating user name:	WinNT
#	Creation time:	15. 06. 2019 20:15

#	Modifying user name:	WinNT
#	Modification time:	15. 06. 2019 20:15

#	Program:	/corina/corina34_cracker 3.40 0067  02.08.2006

@<TRIPOS>MOLECULE
ASD02030667
  42   45    0    0    0
SMALL
NO_CHARGES


@<TRIPOS>ATOM
   1 C1            -0.0187     1.3377     0.2128 C.2     
   2 N2             0.0008    -0.0085     0.1049 N.am    
   3 N3             2.3494    -0.0070     0.1863 N.2     
   4 C4             2.3754     1.3117     0.2926 C.2     
   5 C5             1.1940     2.0281     0.3099 C.2     
   6 C6             1.1974    -0.6726     0.0927 C.2     
   7 O7            -1.0787     1.9433     0.2202 O.2     
   8 C8             3.6946     2.0327     0.3970 C.3     
   9 N9             4.1316     2.0515     1.7952 N.pl3   
  10 C10            4.3914     2.7095     3.8738 C.2     
  11 N11            3.8248     3.0380     2.7412 N.2     
  12 C12            4.8960     1.1184     2.4009 C.2     
  13 C13            5.0737     1.5029     3.6876 C.2     
  14 C14            4.3189     3.4943     5.1583 C.3     
  15 Cl15           5.5360    -0.3171     1.6636 Cl      
  16 F16            3.4536     4.5811     4.9926 F       
  17 F17            3.8411     2.6697     6.1824 F       
  18 F18            5.5949     3.9609     5.4923 F       
  19 C19           -1.1748    -0.6918     0.0096 C.2     
  20 C20           -1.1895    -2.0362    -0.0993 C.2     
  21 C21            0.0212    -2.7559    -0.1160 C.2     
  22 C22            1.2157    -2.0703    -0.0183 C.2     
  23 C23           -2.4773     0.0658     0.0267 C.3     
  24 C24           -2.9828     0.6320    -1.3018 C.3     
  25 C25           -3.6776    -0.5767    -0.6715 C.3     
  26 C26           -2.1596     0.3948    -2.4988 C.1     
  27 N27           -1.5242     0.2118    -3.4226 N.1     
  28 O28            0.0136    -4.1067    -0.2248 O.3     
  29 C29            1.2825    -4.7639    -0.2344 C.3     
  30 H30            1.2067     3.1045     0.3968 H       
  31 H31            4.4394     1.5173    -0.2095 H       
  32 H32            3.5790     3.0556     0.0387 H       
  33 H33            5.6418     0.9717     4.4370 H       
  34 H34           -2.1304    -2.5612    -0.1735 H       
  35 H35            2.1542    -2.6046    -0.0294 H       
  36 H36           -2.6710     0.6476     0.9279 H       
  37 H37           -3.5093     1.5859    -1.2746 H       
  38 H38           -3.5251    -1.5474    -1.1432 H       
  39 H39           -4.6612    -0.4179    -0.2296 H       
  40 H40            1.8107    -4.5478     0.6943 H       
  41 H41            1.1337    -5.8398    -0.3260 H       
  42 H42            1.8710    -4.4053    -1.0790 H       
@<TRIPOS>BOND
   1    1    2 am
   2    1    5 1
   3    1    7 2
   4    2    6 1
   5    2   19 1
   6    3    4 1
   7    3    6 2
   8    4    5 2
   9    4    8 1
  10    5   30 1
  11    6   22 1
  12    8    9 1
  13    8   31 1
  14    8   32 1
  15    9   12 1
  16    9   11 1
  17   10   11 2
  18   10   13 1
  19   10   14 1
  20   12   13 2
  21   12   15 1
  22   13   33 1
  23   14   16 1
  24   14   17 1
  25   14   18 1
  26   19   20 2
  27   19   23 1
  28   20   21 1
  29   20   34 1
  30   21   22 2
  31   21   28 1
  32   22   35 1
  33   23   24 1
  34   23   25 1
  35   23   36 1
  36   24   25 1
  37   24   26 1
  38   24   37 1
  39   25   38 1
  40   25   39 1
  41   26   27 3
  42   28   29 1
  43   29   40 1
  44   29   41 1
  45   29   42 1

#	End of record

