#	Name: ASD02030312
#	Creating user name:	WinNT
#	Creation time:	15. 06. 2019 20:15

#	Modifying user name:	WinNT
#	Modification time:	15. 06. 2019 20:15

#	Program:	/corina/corina34_cracker 3.40 0067  02.08.2006

@<TRIPOS>MOLECULE
ASD02030312
  61   65    0    0    0
SMALL
NO_CHARGES


@<TRIPOS>ATOM
   1 N1            -0.2108     1.4213    -0.1413 N.am    
   2 C2            -0.0213    -0.0122     0.1211 C.3     
   3 C3            -0.9181    -0.4179     1.2972 C.3     
   4 N4            -2.2769     0.0826     1.0462 N.am    
   5 C5            -2.4664     1.5162     0.7838 C.3     
   6 C6            -1.5702     1.9228    -0.3868 C.3     
   7 C7             0.8426     2.2620    -0.1510 C.2     
   8 C8             2.1849     1.7694     0.2249 C.2     
   9 N9             3.2640     2.5059     0.3795 N.2     
  10 N10            2.5169     0.4895     0.4749 N.2     
  11 C11            3.7912     0.4692     0.7719 C.2     
  12 N12            4.2450     1.7378     0.7082 N.pl3   
  13 O13            0.6891     3.4252    -0.4688 O.2     
  14 C14           -3.3303    -0.7580     1.0559 C.2     
  15 C15           -4.7023    -0.2258     0.9120 C.ar    
  16 O16           -3.1525    -1.9537     1.1830 O.2     
  17 C17           -1.5427     3.4479    -0.5068 C.3     
  18 C18           -2.1087     1.3120    -1.6821 C.3     
  19 C19            5.5609     2.1507     0.9569 C.ar    
  20 C20            5.8992     3.4932     0.8567 C.ar    
  21 C21            7.1982     3.8972     1.1032 C.ar    
  22 C22            8.1601     2.9644     1.4489 C.ar    
  23 C23            7.8250     1.6266     1.5492 C.ar    
  24 C24            6.5277     1.2181     1.3097 C.ar    
  25 C25           -5.6718    -0.9663     0.2384 C.ar    
  26 C26           -6.9603    -0.4584     0.1073 C.ar    
  27 C27           -7.2749     0.7870     0.6496 C.ar    
  28 C28           -6.3104     1.5176     1.3166 C.ar    
  29 C29           -5.0314     1.0178     1.4558 C.ar    
  30 C30           -7.9980    -1.2406    -0.6089 C.ar    
  31 C31           -9.2980    -0.7475    -0.7511 C.ar    
  32 Cl32           7.6230     5.5758     0.9784 Cl      
  33 C33          -10.2323    -1.5074    -1.4244 C.ar    
  34 N34           -9.9118    -2.6831    -1.9297 N.ar    
  35 C35           -8.6967    -3.1846    -1.8176 C.ar    
  36 C36           -7.7006    -2.4879    -1.1647 C.ar    
  37 H37           -0.2970    -0.5857    -0.7640 H       
  38 H38            1.0217    -0.2032     0.3735 H       
  39 H39           -0.9387    -1.5043     1.3839 H       
  40 H40           -0.5322     0.0178     2.2188 H       
  41 H41           -3.5094     1.7072     0.5314 H       
  42 H42           -2.1907     2.0896     1.6689 H       
  43 H43            4.3733    -0.4046     1.0252 H       
  44 H44           -1.0462     3.8721     0.3659 H       
  45 H45           -0.9989     3.7316    -1.4079 H       
  46 H46           -2.5633     3.8263    -0.5640 H       
  47 H47           -3.1221     1.6720    -1.8597 H       
  48 H48           -1.4685     1.6031    -2.5148 H       
  49 H49           -2.1193     0.2255    -1.5945 H       
  50 H50            5.1487     4.2211     0.5862 H       
  51 H51            9.1745     3.2818     1.6404 H       
  52 H52            8.5779     0.9007     1.8189 H       
  53 H53            6.2669     0.1730     1.3887 H       
  54 H54           -5.4238    -1.9304    -0.1804 H       
  55 H55           -8.2750     1.1818     0.5477 H       
  56 H56           -6.5595     2.4817     1.7347 H       
  57 H57           -4.2816     1.5932     1.9785 H       
  58 H58           -9.5673     0.2141    -0.3396 H       
  59 H59          -11.2395    -1.1349    -1.5390 H       
  60 H60           -8.4777    -4.1514    -2.2462 H       
  61 H61           -6.7079    -2.9043    -1.0769 H       
@<TRIPOS>BOND
   1    1    2 1
   2    1    7 am
   3    1    6 1
   4    2    3 1
   5    2   37 1
   6    2   38 1
   7    3    4 1
   8    3   39 1
   9    3   40 1
  10    4    5 1
  11    4   14 am
  12    5    6 1
  13    5   41 1
  14    5   42 1
  15    6   17 1
  16    6   18 1
  17    7    8 1
  18    7   13 2
  19    8    9 2
  20    8   10 1
  21    9   12 1
  22   10   11 2
  23   11   12 1
  24   11   43 1
  25   12   19 1
  26   14   15 1
  27   14   16 2
  28   15   25 ar
  29   15   29 ar
  30   17   44 1
  31   17   45 1
  32   17   46 1
  33   18   47 1
  34   18   48 1
  35   18   49 1
  36   19   20 ar
  37   19   24 ar
  38   20   21 ar
  39   20   50 1
  40   21   22 ar
  41   21   32 1
  42   22   23 ar
  43   22   51 1
  44   23   24 ar
  45   23   52 1
  46   24   53 1
  47   25   26 ar
  48   25   54 1
  49   26   27 ar
  50   26   30 1
  51   27   28 ar
  52   27   55 1
  53   28   29 ar
  54   28   56 1
  55   29   57 1
  56   30   31 ar
  57   30   36 ar
  58   31   33 ar
  59   31   58 1
  60   33   34 ar
  61   33   59 1
  62   34   35 ar
  63   35   36 ar
  64   35   60 1
  65   36   61 1

#	End of record

