#	Name: ASD03330153
#	Creating user name:	WinNT
#	Creation time:	15. 06. 2019 20:36

#	Modifying user name:	WinNT
#	Modification time:	15. 06. 2019 20:36

#	Program:	/corina/corina34_cracker 3.40 0067  02.08.2006

@<TRIPOS>MOLECULE
ASD03330153
  86   90    0    0    0
SMALL
NO_CHARGES


@<TRIPOS>ATOM
   1 N1            -0.6437     1.4334    -0.0676 N.am    
   2 C2            -0.6389    -0.0320     0.0386 C.3     
   3 C3            -0.7559    -0.6286    -1.3675 C.3     
   4 C4             0.3548    -0.0590    -2.2531 C.3     
   5 C5             0.1974     1.4597    -2.3581 C.3     
   6 C6             0.3251     2.0800    -0.9633 C.3     
   7 C7             1.6960    -0.3840    -1.6476 C.2     
   8 O8             2.2846     0.4509    -0.9939 O.2     
   9 N9             2.2414    -1.6025    -1.8327 N.am    
  10 N10            0.2659    -0.6541    -3.5932 N.3     
  11 C11            1.2971    -0.1039    -4.4830 C.3     
  12 C12            1.1377    -0.7046    -5.8811 C.3     
  13 C13            2.2118    -0.1315    -6.8079 C.3     
  14 F14            3.4785    -0.4486    -6.3057 F       
  15 F15            2.0660    -0.6808    -8.0863 F       
  16 F16            2.0729     1.2587    -6.8790 F       
  17 C17           -1.5237     2.1703     0.6388 C.2     
  18 O18           -2.3798     1.6204     1.3069 O.2     
  19 C19           -1.4499     3.6331     0.6026 C.2     
  20 C20           -2.4947     4.4746     0.8421 C.2     
  21 C21           -2.1867     5.8161     0.7519 C.2     
  22 C22           -0.8727     6.0753     0.4345 C.2     
  23 S23            0.0011     4.5608     0.2514 S.3     
  24 C24           -3.1862     6.8877     0.9769 C.ar    
  25 C25           -4.3669     6.9087     0.2356 C.ar    
  26 C26           -5.2948     7.9068     0.4477 C.ar    
  27 C27           -5.0544     8.8896     1.3981 C.ar    
  28 C28           -3.8798     8.8718     2.1376 C.ar    
  29 C29           -2.9502     7.8734     1.9344 C.ar    
  30 O30           -5.9709     9.8717     1.6047 O.3     
  31 C31           -5.6597    10.8511     2.5977 C.3     
  32 C32           -6.8004    11.8667     2.6874 C.3     
  33 C33           -6.4672    12.9153     3.7506 C.3     
  34 O34           -7.5326    13.8639     3.8344 O.3     
  35 C35           -7.3202    14.8923     4.8036 C.3     
  36 C36           -8.4567    15.9147     4.7206 C.3     
  37 C37           -8.2543    16.9805     5.8019 C.3     
  38 C38           -8.1863    16.2968     7.1709 C.3     
  39 C39           -7.0603    15.2597     7.1593 C.3     
  40 O40           -7.2938    14.3167     6.1113 O.3     
  41 C41           -0.2856     7.4196     0.2775 C.ar    
  42 C42            0.8933     7.7539     0.9514 C.ar    
  43 C43            1.4371     9.0130     0.8001 C.ar    
  44 C44            0.8171     9.9447    -0.0175 C.ar    
  45 C45           -0.3516     9.6185    -0.6878 C.ar    
  46 C46           -0.9018     8.3618    -0.5494 C.ar    
  47 F47            1.3537    11.1762    -0.1615 F       
  48 Cl48           1.6704     6.5879     1.9762 Cl      
  49 H49            0.2922    -0.3619     0.4992 H       
  50 H50           -1.4843    -0.3571     0.6450 H       
  51 H51           -0.6570    -1.7127    -1.3121 H       
  52 H52           -1.7267    -0.3726    -1.7918 H       
  53 H53            0.9747     1.8619    -3.0078 H       
  54 H54           -0.7825     1.6960    -2.7730 H       
  55 H55            0.1158     3.1483    -1.0179 H       
  56 H56            1.3349     1.9223    -0.5843 H       
  57 H57            1.8087    -2.2438    -2.4179 H       
  58 H58            3.0667    -1.8382    -1.3807 H       
  59 H59            0.3275    -1.6602    -3.5469 H       
  60 H60            1.1889     0.9793    -4.5384 H       
  61 H61            2.2840    -0.3510    -4.0918 H       
  62 H62            1.2459    -1.7878    -5.8257 H       
  63 H63            0.1508    -0.4575    -6.2723 H       
  64 H64           -3.4857     4.1192     1.0831 H       
  65 H65           -4.5544     6.1446    -0.5042 H       
  66 H66           -6.2094     7.9239    -0.1264 H       
  67 H67           -3.6956     9.6382     2.8759 H       
  68 H68           -2.0385     7.8576     2.5132 H       
  69 H69           -5.5321    10.3617     3.5632 H       
  70 H70           -4.7371    11.3639     2.3256 H       
  71 H71           -6.9279    12.3561     1.7219 H       
  72 H72           -7.7229    11.3539     2.9595 H       
  73 H73           -6.3396    12.4259     4.7162 H       
  74 H74           -5.5446    13.4281     3.4785 H       
  75 H75           -6.3700    15.3882     4.6053 H       
  76 H76           -8.4509    16.3868     3.7382 H       
  77 H77           -9.4110    15.4122     4.8786 H       
  78 H78           -7.3238    17.5168     5.6156 H       
  79 H79           -9.0897    17.6804     5.7850 H       
  80 H80           -7.9871    17.0421     7.9409 H       
  81 H81           -9.1351    15.8020     7.3784 H       
  82 H82           -6.1066    15.7604     6.9920 H       
  83 H83           -7.0349    14.7399     8.1171 H       
  84 H84            2.3473     9.2731     1.3200 H       
  85 H85           -0.8301    10.3491    -1.3231 H       
  86 H86           -1.8098     8.1077    -1.0761 H       
@<TRIPOS>BOND
   1    1    2 1
   2    1    6 1
   3    1   17 am
   4    2    3 1
   5    2   49 1
   6    2   50 1
   7    3    4 1
   8    3   51 1
   9    3   52 1
  10    4    5 1
  11    4    7 1
  12    4   10 1
  13    5    6 1
  14    5   53 1
  15    5   54 1
  16    6   55 1
  17    6   56 1
  18    7    8 2
  19    7    9 am
  20    9   57 1
  21    9   58 1
  22   10   11 1
  23   10   59 1
  24   11   12 1
  25   11   60 1
  26   11   61 1
  27   12   13 1
  28   12   62 1
  29   12   63 1
  30   13   14 1
  31   13   15 1
  32   13   16 1
  33   17   18 2
  34   17   19 1
  35   19   20 2
  36   19   23 1
  37   20   21 1
  38   20   64 1
  39   21   22 2
  40   21   24 1
  41   22   23 1
  42   22   41 1
  43   24   25 ar
  44   24   29 ar
  45   25   26 ar
  46   25   65 1
  47   26   27 ar
  48   26   66 1
  49   27   28 ar
  50   27   30 1
  51   28   29 ar
  52   28   67 1
  53   29   68 1
  54   30   31 1
  55   31   32 1
  56   31   69 1
  57   31   70 1
  58   32   33 1
  59   32   71 1
  60   32   72 1
  61   33   34 1
  62   33   73 1
  63   33   74 1
  64   34   35 1
  65   35   36 1
  66   35   40 1
  67   35   75 1
  68   36   37 1
  69   36   76 1
  70   36   77 1
  71   37   38 1
  72   37   78 1
  73   37   79 1
  74   38   39 1
  75   38   80 1
  76   38   81 1
  77   39   40 1
  78   39   82 1
  79   39   83 1
  80   41   42 ar
  81   41   46 ar
  82   42   43 ar
  83   42   48 1
  84   43   44 ar
  85   43   84 1
  86   44   45 ar
  87   44   47 1
  88   45   46 ar
  89   45   85 1
  90   46   86 1

#	End of record

