#	Name: ASD07330028
#	Creating user name:	WinNT
#	Creation time:	15. 06. 2019 21:11

#	Modifying user name:	WinNT
#	Modification time:	15. 06. 2019 21:11

#	Program:	/corina/corina34_cracker 3.40 0067  02.08.2006

@<TRIPOS>MOLECULE
ASD07330028
  59   61    0    0    0
SMALL
NO_CHARGES


@<TRIPOS>ATOM
   1 C1            -1.0417     2.8736    -1.7176 C.ar    
   2 C2            -0.8373     1.5706    -1.3009 C.ar    
   3 C3             0.4451     1.1053    -1.0721 C.ar    
   4 C4             1.5284     1.9398    -1.2592 C.ar    
   5 C5             1.3283     3.2532    -1.6793 C.ar    
   6 C6             0.0343     3.7168    -1.9079 C.ar    
   7 C7             2.4890     4.1552    -1.8816 C.ar    
   8 C8             2.6143     4.8785    -3.0656 C.ar    
   9 C9             3.6962     5.7162    -3.2487 C.ar    
  10 C10            4.6552     5.8380    -2.2596 C.ar    
  11 C11            4.5363     5.1224    -1.0817 C.ar    
  12 C12            3.4553     4.2864    -0.8853 C.ar    
  13 I13            3.2767     3.2032     0.8991 I       
  14 C14           -2.0161     0.6546    -1.0949 C.3     
  15 N15           -2.3123    -0.0517    -2.3484 N.4     
  16 C16           -3.4615    -0.9445    -2.1477 C.3     
  17 C17           -3.8435    -1.5749    -3.4621 C.2     
  18 C18           -4.7806    -1.0549    -4.2212 C.2     
  19 C19           -5.1275    -1.7128    -5.5347 C.3     
  20 C20           -4.3052    -2.9979    -5.7026 C.3     
  21 C21           -2.8071    -2.7266    -5.4553 C.3     
  22 C22           -3.1554    -2.8327    -3.9632 C.3     
  23 C23           -4.2461    -3.8407    -4.4171 C.3     
  24 C24           -5.5277    -3.7896    -3.5829 C.3     
  25 C25           -3.7244    -5.2629    -4.6318 C.3     
  26 C26           -2.6293     0.9259    -3.3982 C.3     
  27 C27           -1.1425    -0.8427    -2.7531 C.3     
  28 H28           -2.0448     3.2305    -1.8987 H       
  29 H29            0.5989     0.0872    -0.7462 H       
  30 H30            2.5292     1.5756    -1.0799 H       
  31 H31           -0.1263     4.7338    -2.2339 H       
  32 H32            1.8665     4.7838    -3.8391 H       
  33 H33            3.7941     6.2773    -4.1662 H       
  34 H34            5.5002     6.4940    -2.4075 H       
  35 H35            5.2883     5.2210    -0.3128 H       
  36 H36           -1.7809    -0.0707    -0.3160 H       
  37 H37           -2.8842     1.2415    -0.7947 H       
  38 H38           -3.1952    -1.7246    -1.4344 H       
  39 H39           -4.3040    -0.3710    -1.7612 H       
  40 H40           -5.3003    -0.1617    -3.9072 H       
  41 H41           -6.1896    -1.9574    -5.5485 H       
  42 H42           -4.9028    -1.0290    -6.3533 H       
  43 H43           -4.5282    -3.5474    -6.6172 H       
  44 H44           -2.1503    -3.5195    -5.8130 H       
  45 H45           -2.4827    -1.7317    -5.7602 H       
  46 H46           -2.3688    -3.2152    -3.3128 H       
  47 H47           -6.3435    -4.2482    -4.1417 H       
  48 H48           -5.3760    -4.3326    -2.6501 H       
  49 H49           -5.7767    -2.7515    -3.3627 H       
  50 H50           -2.8922    -5.2423    -5.3354 H       
  51 H51           -3.3858    -5.6732    -3.6804 H       
  52 H52           -4.5236    -5.8865    -5.0325 H       
  53 H53           -1.7983     1.6225    -3.5088 H       
  54 H54           -2.7951     0.4053    -4.3413 H       
  55 H55           -3.5297     1.4752    -3.1232 H       
  56 H56           -0.8707    -1.5267    -1.9491 H       
  57 H57           -1.3824    -1.4133    -3.6502 H       
  58 H58           -0.3063    -0.1748    -2.9601 H       
  59 I59           10.5002    11.4940     5.8991 I       
@<TRIPOS>BOND
   1    1    2 ar
   2    1    6 ar
   3    1   28 1
   4    2    3 ar
   5    2   14 1
   6    3    4 ar
   7    3   29 1
   8    4    5 ar
   9    4   30 1
  10    5    6 ar
  11    5    7 1
  12    6   31 1
  13    7    8 ar
  14    7   12 ar
  15    8    9 ar
  16    8   32 1
  17    9   10 ar
  18    9   33 1
  19   10   11 ar
  20   10   34 1
  21   11   12 ar
  22   11   35 1
  23   12   13 1
  24   14   15 1
  25   14   36 1
  26   14   37 1
  27   15   16 1
  28   15   26 1
  29   15   27 1
  30   16   17 1
  31   16   38 1
  32   16   39 1
  33   17   18 2
  34   17   22 1
  35   18   19 1
  36   18   40 1
  37   19   20 1
  38   19   41 1
  39   19   42 1
  40   20   21 1
  41   20   23 1
  42   20   43 1
  43   21   22 1
  44   21   44 1
  45   21   45 1
  46   22   23 1
  47   22   46 1
  48   23   24 1
  49   23   25 1
  50   24   47 1
  51   24   48 1
  52   24   49 1
  53   25   50 1
  54   25   51 1
  55   25   52 1
  56   26   53 1
  57   26   54 1
  58   26   55 1
  59   27   56 1
  60   27   57 1
  61   27   58 1

#	End of record

