#	Name: ASD01910255
#	Creating user name:	WinNT
#	Creation time:	15. 06. 2019 19:55

#	Modifying user name:	WinNT
#	Modification time:	15. 06. 2019 19:55

#	Program:	/corina/corina34_cracker 3.40 0067  02.08.2006

@<TRIPOS>MOLECULE
ASD01910255
  44   47    0    0    0
SMALL
NO_CHARGES


@<TRIPOS>ATOM
   1 C1             0.6232     0.5054     0.4139 C.2     
   2 C2             1.8008     1.4457     0.3994 C.3     
   3 C3             2.1178     1.8452    -1.0435 C.3     
   4 C4             3.3339     2.7740    -1.0620 C.3     
   5 C5             3.0134     4.0443    -0.2679 C.3     
   6 N6             2.5678     3.6604     1.0785 N.am    
   7 C7             1.4629     2.7008     1.2101 C.3     
   8 C8             3.1611     4.1787     2.1720 C.2     
   9 O9             2.7389     3.9067     3.2791 O.2     
  10 N10            0.6125    -0.7207     0.8741 N.2     
  11 C11           -0.6482    -1.1705     0.6801 C.2     
  12 N12           -1.3222    -0.1998     0.1187 N.2     
  13 O13           -0.6080     0.7683    -0.0353 O.3     
  14 C14           -1.1688    -2.5122     1.0368 C.ar    
  15 C15           -2.5006    -2.8390     0.7758 C.ar    
  16 C16           -2.9804    -4.0911     1.1105 C.ar    
  17 C17           -2.1425    -5.0209     1.7043 C.ar    
  18 C18           -0.8201    -4.7019     1.9661 C.ar    
  19 C19           -0.3276    -3.4552     1.6297 C.ar    
  20 F20           -2.6170    -6.2432     2.0298 F       
  21 C21            4.3245     5.0771     2.0253 C.ar    
  22 C22            4.2633     6.1661     1.1531 C.ar    
  23 C23            5.3517     7.0012     1.0200 C.ar    
  24 C24            6.5059     6.7617     1.7501 C.ar    
  25 C25            6.5722     5.6816     2.6171 C.ar    
  26 C26            5.4874     4.8438     2.7625 C.ar    
  27 F27            7.5699     7.5833     1.6159 F       
  28 F28           -3.3191    -1.9330     0.1976 F       
  29 F29            0.9624    -3.1456     1.8851 F       
  30 H30            2.6670     0.9506     0.8385 H       
  31 H31            2.3345     0.9514    -1.6286 H       
  32 H32            1.2598     2.3616    -1.4741 H       
  33 H33            4.1859     2.2670    -0.6090 H       
  34 H34            3.5733     3.0395    -2.0918 H       
  35 H35            3.9069     4.6643    -0.1942 H       
  36 H36            2.2214     4.5994    -0.7706 H       
  37 H37            0.5445     3.1464     0.8280 H       
  38 H38            1.3334     2.4344     2.2591 H       
  39 H39           -4.0106    -4.3451     0.9091 H       
  40 H40           -0.1714    -5.4306     2.4295 H       
  41 H41            3.3649     6.3534     0.5838 H       
  42 H42            5.3056     7.8435     0.3456 H       
  43 H43            7.4738     5.4993     3.1831 H       
  44 H44            5.5400     4.0030     3.4383 H       
@<TRIPOS>BOND
   1    1   10 2
   2    1    2 1
   3    1   13 1
   4    2    3 1
   5    2    7 1
   6    2   30 1
   7    3    4 1
   8    3   31 1
   9    3   32 1
  10    4    5 1
  11    4   33 1
  12    4   34 1
  13    5    6 1
  14    5   35 1
  15    5   36 1
  16    6    7 1
  17    6    8 am
  18    7   37 1
  19    7   38 1
  20    8    9 2
  21    8   21 1
  22   10   11 1
  23   11   12 2
  24   11   14 1
  25   12   13 1
  26   14   15 ar
  27   14   19 ar
  28   15   16 ar
  29   15   28 1
  30   16   17 ar
  31   16   39 1
  32   17   18 ar
  33   17   20 1
  34   18   19 ar
  35   18   40 1
  36   19   29 1
  37   21   22 ar
  38   21   26 ar
  39   22   23 ar
  40   22   41 1
  41   23   24 ar
  42   23   42 1
  43   24   25 ar
  44   24   27 1
  45   25   26 ar
  46   25   43 1
  47   26   44 1

#	End of record

