#	Name: ASD00310027
#	Creating user name:	WinNT
#	Creation time:	15. 06. 2019 18:33

#	Modifying user name:	WinNT
#	Modification time:	15. 06. 2019 18:33

#	Program:	/corina/corina34_cracker 3.40 0067  02.08.2006

@<TRIPOS>MOLECULE
ASD00310027
  25   25    0    0    0
SMALL
NO_CHARGES


@<TRIPOS>ATOM
   1 C1            -0.0187     1.5258     0.0104 C.3     
   2 C2             0.0021    -0.0041     0.0020 C.3     
   3 C3             0.6310    -0.5127     1.3007 C.3     
   4 C4             0.6518    -2.0426     1.2923 C.3     
   5 O5             1.3220     2.0204     0.0003 O.3     
   6 Cl6            1.3929    -2.6420     2.8227 Cl      
   7 C7            -0.7475     2.0250    -1.2105 C.ar    
   8 C8            -2.0646     2.4330    -1.1103 C.ar    
   9 C9            -2.7333     2.8913    -2.2297 C.ar    
  10 C10           -2.0846     2.9418    -3.4503 C.ar    
  11 C11           -0.7667     2.5335    -3.5501 C.ar    
  12 C12           -0.0972     2.0802    -2.4291 C.ar    
  13 Br13          -2.9992     3.5682    -4.9823 Br      
  14 H14           -0.5289     1.8773     0.9072 H       
  15 H15           -1.0175    -0.3808    -0.0798 H       
  16 H16            0.5883    -0.3548    -0.8473 H       
  17 H17            1.6506    -0.1360     1.3826 H       
  18 H18            0.0448    -0.1620     2.1500 H       
  19 H19           -0.3678    -2.4193     1.2104 H       
  20 H20            1.2380    -2.3933     0.4429 H       
  21 H21            1.8365     1.7462    -0.7712 H       
  22 H22           -2.5711     2.3932    -0.1573 H       
  23 H23           -3.7624     3.2097    -2.1514 H       
  24 H24           -0.2599     2.5723    -4.5030 H       
  25 H25            0.9330     1.7652    -2.5060 H       
@<TRIPOS>BOND
   1    1    2 1
   2    1    5 1
   3    1    7 1
   4    1   14 1
   5    2    3 1
   6    2   15 1
   7    2   16 1
   8    3    4 1
   9    3   17 1
  10    3   18 1
  11    4    6 1
  12    4   19 1
  13    4   20 1
  14    5   21 1
  15    7    8 ar
  16    7   12 ar
  17    8    9 ar
  18    8   22 1
  19    9   10 ar
  20    9   23 1
  21   10   11 ar
  22   10   13 1
  23   11   12 ar
  24   11   24 1
  25   12   25 1

#	End of record

