#	Name: ASD02560473
#	Creating user name:	WinNT
#	Creation time:	15. 06. 2019 20:25

#	Modifying user name:	WinNT
#	Modification time:	15. 06. 2019 20:25

#	Program:	/corina/corina34_cracker 3.40 0067  02.08.2006

@<TRIPOS>MOLECULE
ASD02560473
  49   52    0    0    0
SMALL
NO_CHARGES


@<TRIPOS>ATOM
   1 C1            -0.0052     1.4162     0.0669 C.2     
   2 C2             0.0086     0.0114     0.0001 C.2     
   3 C3             1.1783    -0.6584    -0.0211 C.2     
   4 N4             2.3678     0.0169     0.0220 N.pl3   
   5 C5             2.3853     1.3912     0.0872 C.2     
   6 C6             1.1678     2.1021     0.1099 C.2     
   7 C7             3.6709    -0.4001     0.0137 C.2     
   8 C8             4.4460     0.7120     0.0731 C.2     
   9 N9             3.6485     1.7853     0.1169 N.2     
  10 C10            5.9528     0.7344     0.0879 C.3     
  11 N11            4.1201    -1.7252    -0.0446 N.3     
  12 C12            2.9997    -2.6669     0.0813 C.3     
  13 C13            2.3759    -2.9559    -1.3066 C.3     
  14 C14            6.4553     1.5093    -1.1029 C.ar    
  15 C15            7.2685     0.8930    -2.0355 C.ar    
  16 C16            6.0986     2.8349    -1.2656 C.ar    
  17 C17            6.5595     3.5457    -2.3579 C.ar    
  18 C18            7.3777     2.9311    -3.2873 C.ar    
  19 C19            7.7295     1.6038    -3.1278 C.ar    
  20 C20            6.4403     1.4036     1.3745 C.3     
  21 C21            3.5028    -4.0431     0.5639 C.3     
  22 C22            2.6736    -5.1014    -0.1846 C.3     
  23 C23            1.6957    -4.3314    -1.0959 C.3     
  24 C24            1.1669     3.6074     0.1806 C.3     
  25 H25           -0.9448     1.9486     0.0795 H       
  26 H26           -0.9231    -0.5338    -0.0341 H       
  27 H27            1.1767    -1.7371    -0.0722 H       
  28 H28            6.3318    -0.2866     0.0432 H       
  29 H29            4.6405    -1.8936    -0.8925 H       
  30 H30            2.2476    -2.2742     0.7656 H       
  31 H31            1.6384    -2.1958    -1.5645 H       
  32 H32            3.1493    -3.0206    -2.0719 H       
  33 H33            7.5439    -0.1438    -1.9106 H       
  34 H34            5.4594     3.3151    -0.5395 H       
  35 H35            6.2802     4.5811    -2.4854 H       
  36 H36            7.7375     3.4863    -4.1409 H       
  37 H37            8.3687     1.1236    -3.8540 H       
  38 H38            6.0768     0.8431     2.2358 H       
  39 H39            7.5301     1.4198     1.3852 H       
  40 H40            6.0613     2.4246     1.4192 H       
  41 H41            4.5598    -4.1591     0.3247 H       
  42 H42            3.3499    -4.1406     1.6387 H       
  43 H43            3.3283    -5.7311    -0.7871 H       
  44 H44            2.1184    -5.7125     0.5270 H       
  45 H45            0.7313    -4.2086    -0.6030 H       
  46 H46            1.5754    -4.8474    -2.0485 H       
  47 H47            1.1757     4.0186    -0.8288 H       
  48 H48            0.2722     3.9460     0.7031 H       
  49 H49            2.0521     3.9464     0.7187 H       
@<TRIPOS>BOND
   1    1    2 1
   2    1    6 2
   3    1   25 1
   4    2    3 2
   5    2   26 1
   6    3    4 1
   7    3   27 1
   8    4    5 1
   9    4    7 1
  10    5    6 1
  11    5    9 2
  12    6   24 1
  13    7    8 2
  14    7   11 1
  15    8    9 1
  16    8   10 1
  17   10   14 1
  18   10   20 1
  19   10   28 1
  20   11   12 1
  21   11   29 1
  22   12   21 1
  23   12   13 1
  24   12   30 1
  25   13   23 1
  26   13   31 1
  27   13   32 1
  28   14   15 ar
  29   14   16 ar
  30   15   19 ar
  31   15   33 1
  32   16   17 ar
  33   16   34 1
  34   17   18 ar
  35   17   35 1
  36   18   19 ar
  37   18   36 1
  38   19   37 1
  39   20   38 1
  40   20   39 1
  41   20   40 1
  42   21   22 1
  43   21   41 1
  44   21   42 1
  45   22   23 1
  46   22   43 1
  47   22   44 1
  48   23   45 1
  49   23   46 1
  50   24   47 1
  51   24   48 1
  52   24   49 1

#	End of record

