#	Name: ASD03950174
#	Creating user name:	WinNT
#	Creation time:	15. 06. 2019 20:48

#	Modifying user name:	WinNT
#	Modification time:	15. 06. 2019 20:48

#	Program:	/corina/corina34_cracker 3.40 0067  02.08.2006

@<TRIPOS>MOLECULE
ASD03950174
  56   60    0    0    0
SMALL
NO_CHARGES


@<TRIPOS>ATOM
   1 N1            -0.7064     1.3073    -0.2510 N.pl3   
   2 N2            -0.5532    -0.0822    -0.2135 N.2     
   3 C3             0.7094    -0.3905    -0.1342 C.2     
   4 C4             1.4700     0.8566    -0.1159 C.ar    
   5 C5             2.8329     1.1565    -0.0437 C.ar    
   6 C6             3.2513     2.4797    -0.0471 C.ar    
   7 C7             2.3187     3.5157    -0.1219 C.ar    
   8 C8             0.9601     3.2342    -0.1938 C.ar    
   9 C9             0.5240     1.8962    -0.1920 C.ar    
  10 C10           -0.0210     4.3331    -0.2722 C.2     
  11 O11           -1.2094     4.0838    -0.3350 O.2     
  12 N12            0.3999     5.6135    -0.2741 N.am    
  13 N13            1.0957    -4.6047    -0.0250 N.am    
  14 C14            1.3498    -3.9060     1.2423 C.3     
  15 C15            0.7383    -2.5036     1.1634 C.3     
  16 C16            1.2828    -1.7828    -0.0720 C.3     
  17 C17            0.8847    -2.5549    -1.3319 C.3     
  18 C18            1.4979    -3.9578    -1.2814 C.3     
  19 C19            0.5098    -5.8184    -0.0344 C.2     
  20 O20            0.2078    -6.3393    -1.0903 O.2     
  21 C21            0.2344    -6.5162     1.2396 C.ar    
  22 C22           -0.9720    -7.1946     1.4206 C.ar    
  23 C23           -1.2225    -7.8441     2.6117 C.ar    
  24 C24           -0.2812    -7.8237     3.6256 C.ar    
  25 C25            0.9166    -7.1532     3.4525 C.ar    
  26 C26            1.1820    -6.5045     2.2643 C.ar    
  27 C27            4.6995     2.7953     0.0297 C.ar    
  28 C28            5.1272     4.1213     0.0267 C.ar    
  29 C29            6.4751     4.4091     0.0988 C.ar    
  30 C30            7.4008     3.3840     0.1734 C.ar    
  31 C31            6.9817     2.0658     0.1763 C.ar    
  32 C32            5.6358     1.7668     0.1108 C.ar    
  33 H33           -1.5523     1.7779    -0.3132 H       
  34 H34            3.5595     0.3597     0.0151 H       
  35 H35            2.6552     4.5419    -0.1236 H       
  36 H36            1.3480     5.8124    -0.2240 H       
  37 H37           -0.2452     6.3360    -0.3256 H       
  38 H38            0.8919    -4.4587     2.0625 H       
  39 H39            2.4244    -3.8273     1.4070 H       
  40 H40           -0.3463    -2.5833     1.0896 H       
  41 H41            1.0022    -1.9408     2.0588 H       
  42 H42            2.3695    -1.7256    -0.0095 H       
  43 H43           -0.2012    -2.6341    -1.3822 H       
  44 H44            1.2527    -2.0285    -2.2126 H       
  45 H45            2.5846    -3.8833    -1.3224 H       
  46 H46            1.1376    -4.5448    -2.1262 H       
  47 H47           -1.7078    -7.2106     0.6303 H       
  48 H48           -2.1555    -8.3693     2.7531 H       
  49 H49           -0.4826    -8.3332     4.5563 H       
  50 H50            1.6471    -7.1411     4.2479 H       
  51 H51            2.1192    -5.9852     2.1288 H       
  52 H52            4.4053     4.9224    -0.0323 H       
  53 H53            6.8078     5.4366     0.0965 H       
  54 H54            8.4546     3.6137     0.2293 H       
  55 H55            7.7087     1.2692     0.2340 H       
  56 H56            5.3094     0.7373     0.1180 H       
@<TRIPOS>BOND
   1    1    2 1
   2    1    9 1
   3    1   33 1
   4    2    3 2
   5    3    4 1
   6    3   16 1
   7    4    5 ar
   8    4    9 ar
   9    5    6 ar
  10    5   34 1
  11    6    7 ar
  12    6   27 1
  13    7    8 ar
  14    7   35 1
  15    8    9 ar
  16    8   10 1
  17   10   11 2
  18   10   12 am
  19   12   36 1
  20   12   37 1
  21   13   14 1
  22   13   18 1
  23   13   19 am
  24   14   15 1
  25   14   38 1
  26   14   39 1
  27   15   16 1
  28   15   40 1
  29   15   41 1
  30   16   17 1
  31   16   42 1
  32   17   18 1
  33   17   43 1
  34   17   44 1
  35   18   45 1
  36   18   46 1
  37   19   20 2
  38   19   21 1
  39   21   22 ar
  40   21   26 ar
  41   22   23 ar
  42   22   47 1
  43   23   24 ar
  44   23   48 1
  45   24   25 ar
  46   24   49 1
  47   25   26 ar
  48   25   50 1
  49   26   51 1
  50   27   28 ar
  51   27   32 ar
  52   28   29 ar
  53   28   52 1
  54   29   30 ar
  55   29   53 1
  56   30   31 ar
  57   30   54 1
  58   31   32 ar
  59   31   55 1
  60   32   56 1

#	End of record

