#	Name: ASD01813043
#	Creating user name:	WinNT
#	Creation time:	15. 06. 2019 19:29

#	Modifying user name:	WinNT
#	Modification time:	15. 06. 2019 19:29

#	Program:	/corina/corina34_cracker 3.40 0067  02.08.2006

@<TRIPOS>MOLECULE
ASD01813043
  56   59    0    0    0
SMALL
NO_CHARGES


@<TRIPOS>ATOM
   1 C1            -1.4632     1.4620    -0.0144 C.2     
   2 C2            -1.7259     0.1466     0.0613 C.2     
   3 N3            -0.7227    -0.7743    -0.0487 N.pl3   
   4 C4             0.5631    -0.4460    -0.2220 C.2     
   5 C5             0.9354     0.8813    -0.3019 C.2     
   6 C6            -0.1208     1.8964    -0.1982 C.2     
   7 O7             0.1477     3.0856    -0.2608 O.2     
   8 C8            -1.0726    -2.1949     0.0275 C.3     
   9 C9            -0.8936    -2.6811     1.4426 C.ar    
  10 C10           -2.5265     2.5238     0.0797 C.3     
  11 C11           -3.8045     1.9574     0.6944 C.3     
  12 C12           -4.1660     0.6701    -0.0568 C.3     
  13 C13           -3.1197    -0.3894     0.2792 C.3     
  14 C14           -1.9779    -2.7183     2.3007 C.ar    
  15 C15           -1.8198    -3.1631     3.5976 C.ar    
  16 C16           -0.5649    -3.5753     4.0421 C.ar    
  17 C17            0.5239    -3.5357     3.1731 C.ar    
  18 C18            0.3532    -3.0940     1.8768 C.ar    
  19 C19           -0.3887    -4.0539     5.4351 C.ar    
  20 C20            0.8672    -4.4659     5.8781 C.ar    
  21 C21            1.0287    -4.9099     7.1732 C.ar    
  22 C22           -0.0594    -4.9470     8.0370 C.ar    
  23 C23           -1.3125    -4.5368     7.5976 C.ar    
  24 C24           -1.4776    -4.0870     6.3048 C.ar    
  25 O25           -2.0487     3.5971     0.8932 O.3     
  26 N26            0.1067    -5.3981     9.3500 N.am    
  27 C27            1.2688    -5.1782     9.9962 C.2     
  28 C28            1.4909    -5.7629    11.3673 C.3     
  29 O29            2.1359    -4.5098     9.4742 O.2     
  30 C30            2.3433     1.2658    -0.4893 C.2     
  31 O31            3.2008     0.4089    -0.5765 O.2     
  32 O32            2.6819     2.5682    -0.5643 O.3     
  33 H33            1.3113    -1.2210    -0.2992 H       
  34 H34           -2.1112    -2.3300    -0.2745 H       
  35 H35           -0.4238    -2.7650    -0.6374 H       
  36 H36           -2.7456     2.9015    -0.9190 H       
  37 H37           -3.6383     1.7342     1.7483 H       
  38 H38           -4.6132     2.6814     0.5942 H       
  39 H39           -5.1515     0.3259     0.2568 H       
  40 H40           -4.1663     0.8587    -1.1304 H       
  41 H41           -3.2731    -1.2599    -0.3585 H       
  42 H42           -3.2312    -0.6855     1.3222 H       
  43 H43           -2.9498    -2.3983     1.9553 H       
  44 H44           -2.6670    -3.1914     4.2669 H       
  45 H45            1.4986    -3.8539     3.5123 H       
  46 H46            1.1962    -3.0632     1.2024 H       
  47 H47            1.7130    -4.4375     5.2071 H       
  48 H48            2.0014    -5.2294     7.5168 H       
  49 H49           -2.1566    -4.5665     8.2705 H       
  50 H50           -2.4515    -3.7684     5.9638 H       
  51 H51           -2.6809     4.3210     1.0002 H       
  52 H52           -0.6145    -5.8693     9.7958 H       
  53 H53            0.6087    -6.3276    11.6688 H       
  54 H54            2.3560    -6.4256    11.3439 H       
  55 H55            1.6687    -4.9584    12.0809 H       
  56 H56            3.6192     2.7717    -0.6878 H       
@<TRIPOS>BOND
   1    1    2 2
   2    1   10 1
   3    1    6 1
   4    2    3 1
   5    2   13 1
   6    3    4 1
   7    3    8 1
   8    4    5 2
   9    4   33 1
  10    5    6 1
  11    5   30 1
  12    6    7 2
  13    8    9 1
  14    8   34 1
  15    8   35 1
  16    9   14 ar
  17    9   18 ar
  18   10   11 1
  19   10   25 1
  20   10   36 1
  21   11   12 1
  22   11   37 1
  23   11   38 1
  24   12   13 1
  25   12   39 1
  26   12   40 1
  27   13   41 1
  28   13   42 1
  29   14   15 ar
  30   14   43 1
  31   15   16 ar
  32   15   44 1
  33   16   17 ar
  34   16   19 1
  35   17   18 ar
  36   17   45 1
  37   18   46 1
  38   19   20 ar
  39   19   24 ar
  40   20   21 ar
  41   20   47 1
  42   21   22 ar
  43   21   48 1
  44   22   23 ar
  45   22   26 1
  46   23   24 ar
  47   23   49 1
  48   24   50 1
  49   25   51 1
  50   26   27 am
  51   26   52 1
  52   27   28 1
  53   27   29 2
  54   28   53 1
  55   28   54 1
  56   28   55 1
  57   30   31 2
  58   30   32 1
  59   32   56 1

#	End of record

