#	Name: ASD00210001
#	Creating user name:	WinNT
#	Creation time:	15. 06. 2019 18:33

#	Modifying user name:	WinNT
#	Modification time:	15. 06. 2019 18:33

#	Program:	/corina/corina34_cracker 3.40 0067  02.08.2006

@<TRIPOS>MOLECULE
ASD00210001
  19   18    0    0    0
SMALL
NO_CHARGES


@<TRIPOS>ATOM
   1 C1            -0.0187     1.5258     0.0104 C.3     
   2 C2             0.0021    -0.0041     0.0020 C.3     
   3 C3            -1.4333    -0.5336     0.0129 C.3     
   4 C4             0.7182    -0.4975    -1.2568 C.3     
   5 C5            -2.1387    -0.0476     1.2528 C.2     
   6 O6            -1.9368    -0.6673     2.4262 O.3     
   7 O7            -2.8860     0.8998     1.1906 O.2     
   8 N8            -2.1438    -0.0470    -1.1772 N.3     
   9 H9             1.0039     1.9031     0.0027 H       
  10 H10           -0.5459     1.8868    -0.8726 H       
  11 H11           -0.5289     1.8773     0.9072 H       
  12 H12            0.5293    -0.3651     0.8851 H       
  13 H13           -1.4185    -1.6235     0.0069 H       
  14 H14            1.7408    -0.1202    -1.2645 H       
  15 H15            0.7330    -1.5874    -1.2628 H       
  16 H16            0.1910    -0.1364    -2.1398 H       
  17 H17           -2.4113    -0.3195     3.1937 H       
  18 H18           -3.0739    -0.4349    -1.2269 H       
  19 H19           -2.1712     0.9615    -1.1949 H       
@<TRIPOS>BOND
   1    1    2 1
   2    1    9 1
   3    1   10 1
   4    1   11 1
   5    2    3 1
   6    2    4 1
   7    2   12 1
   8    3    5 1
   9    3    8 1
  10    3   13 1
  11    4   14 1
  12    4   15 1
  13    4   16 1
  14    5    6 1
  15    5    7 2
  16    6   17 1
  17    8   18 1
  18    8   19 1

#	End of record

