#	Name: ASD07930120
#	Creating user name:	WinNT
#	Creation time:	15. 06. 2019 21:11

#	Modifying user name:	WinNT
#	Modification time:	15. 06. 2019 21:11

#	Program:	/corina/corina34_cracker 3.40 0067  02.08.2006

@<TRIPOS>MOLECULE
ASD07930120
  57   61    0    0    0
SMALL
NO_CHARGES


@<TRIPOS>ATOM
   1 C1             1.1988     2.1531     1.8775 C.2     
   2 C2             1.1147     0.6827     2.0202 C.2     
   3 N3             2.3376     2.6980     1.3286 N.am    
   4 N4             2.2641    -0.0337     2.0407 N.am    
   5 C5             3.5451     0.6821     1.9561 C.3     
   6 C6             3.4140     1.7930     0.9036 C.3     
   7 C7             0.1662     2.9444     2.2772 C.2     
   8 C8             0.2420     4.3365     2.1459 C.2     
   9 C9             1.3669     4.9024     1.6113 C.2     
  10 C10            2.4621     4.0286     1.1833 C.2     
  11 O11            0.0365     0.1292     2.1174 O.2     
  12 O12            3.4761     4.5033     0.7004 O.2     
  13 C13            2.3449     7.1054     2.1108 C.2     
  14 N14            2.1325     8.3324     1.7201 N.2     
  15 C15            1.1286     8.3483     0.8305 C.2     
  16 C16            0.6980     7.0841     0.6593 C.2     
  17 N17            1.4670     6.2894     1.4702 N.pl3   
  18 C18            0.5774     9.5703     0.1419 C.3     
  19 C19            2.2310    -1.4947     2.1448 C.3     
  20 C20            2.1819    -2.1049     0.7426 C.3     
  21 O21            3.3940    -1.8026     0.0488 O.3     
  22 C22            3.5130    -2.2751    -1.2203 C.ar    
  23 C23            4.6637    -2.0186    -1.9516 C.ar    
  24 C24            4.7834    -2.4996    -3.2409 C.ar    
  25 C25            3.7554    -3.2372    -3.8037 C.ar    
  26 C26            2.6067    -3.4939    -3.0751 C.ar    
  27 C27            2.4866    -3.0188    -1.7832 C.ar    
  28 F28            3.8735    -3.7063    -5.0651 F       
  29 C29            5.7822    -1.2150    -1.3399 C.3     
  30 C30            6.4291    -1.7610    -0.0654 C.3     
  31 C31            7.1904    -1.8111    -1.3916 C.3     
  32 C32            5.6522     0.3037    -1.4714 C.3     
  33 F33            6.8568    -0.8332     0.8904 F       
  34 F34            5.9369    -2.9679     0.4429 F       
  35 H35            3.7837     1.1215     2.9246 H       
  36 H36            4.3330    -0.0109     1.6610 H       
  37 H37            3.1673     1.3562    -0.0641 H       
  38 H38            4.3515     2.3442     0.8312 H       
  39 H39           -0.7202     2.4944     2.6993 H       
  40 H40           -0.5815     4.9587     2.4640 H       
  41 H41            3.0956     6.7908     2.8207 H       
  42 H42           -0.0998     6.7584     0.0082 H       
  43 H43            1.1196     9.7385    -0.7886 H       
  44 H44           -0.4798     9.4189    -0.0758 H       
  45 H45            0.6939    10.4373     0.7922 H       
  46 H46            3.1257    -1.8424     2.6612 H       
  47 H47            1.3468    -1.7991     2.7047 H       
  48 H48            2.0678    -3.1861     0.8207 H       
  49 H49            1.3363    -1.6889     0.1948 H       
  50 H50            5.6791    -2.3000    -3.8104 H       
  51 H51            1.8057    -4.0693    -3.5152 H       
  52 H52            1.5920    -3.2227    -1.2135 H       
  53 H53            7.3078    -2.7844    -1.8680 H       
  54 H54            8.0245    -1.1212    -1.5194 H       
  55 H55            4.6892     0.6219    -1.0720 H       
  56 H56            6.4544     0.7868    -0.9135 H       
  57 H57            5.7203     0.5846    -2.5224 H       
@<TRIPOS>BOND
   1    1    2 1
   2    1    3 1
   3    1    7 2
   4    2    4 am
   5    2   11 2
   6    3    6 1
   7    3   10 am
   8    4    5 1
   9    4   19 1
  10    5    6 1
  11    5   35 1
  12    5   36 1
  13    6   37 1
  14    6   38 1
  15    7    8 1
  16    7   39 1
  17    8    9 2
  18    8   40 1
  19    9   10 1
  20    9   17 1
  21   10   12 2
  22   13   14 2
  23   13   17 1
  24   13   41 1
  25   14   15 1
  26   15   16 2
  27   15   18 1
  28   16   17 1
  29   16   42 1
  30   18   43 1
  31   18   44 1
  32   18   45 1
  33   19   20 1
  34   19   46 1
  35   19   47 1
  36   20   21 1
  37   20   48 1
  38   20   49 1
  39   21   22 1
  40   22   23 ar
  41   22   27 ar
  42   23   24 ar
  43   23   29 1
  44   24   25 ar
  45   24   50 1
  46   25   26 ar
  47   25   28 1
  48   26   27 ar
  49   26   51 1
  50   27   52 1
  51   29   30 1
  52   29   31 1
  53   29   32 1
  54   30   31 1
  55   30   33 1
  56   30   34 1
  57   31   53 1
  58   31   54 1
  59   32   55 1
  60   32   56 1
  61   32   57 1

#	End of record

