#	Name: ASD02038362
#	Creating user name:	WinNT
#	Creation time:	15. 06. 2019 20:16

#	Modifying user name:	WinNT
#	Modification time:	15. 06. 2019 20:16

#	Program:	/corina/corina34_cracker 3.40 0067  02.08.2006

@<TRIPOS>MOLECULE
ASD02038362
  50   52    0    0    0
SMALL
NO_CHARGES


@<TRIPOS>ATOM
   1 N1            -0.0201     1.3961     0.0101 N.am    
   2 N2            -0.2249    -6.6678    -1.5132 N.am    
   3 C3             1.1160    -6.2001    -1.1535 C.3     
   4 C4             1.1620    -4.6729    -1.2338 C.3     
   5 O5             0.2905    -4.1175    -0.2469 O.3     
   6 C6             0.2139    -2.7611    -0.1838 C.ar    
   7 C7            -0.6129    -2.1563     0.7512 C.ar    
   8 C8            -0.6910    -0.7790     0.8162 C.ar    
   9 C9             0.0587     0.0004    -0.0548 C.ar    
  10 C10            0.8863    -0.6059    -0.9906 C.ar    
  11 C11            0.9671    -1.9833    -1.0508 C.ar    
  12 C12           -0.5071    -6.9659    -2.9144 C.3     
  13 C13           -1.7567    -7.8418    -3.0227 C.3     
  14 N14           -2.8356    -7.2257    -2.2335 N.3     
  15 C15           -2.5266    -7.3105    -0.7999 C.3     
  16 C16           -1.1343    -6.8079    -0.5429 C.2     
  17 C17           -4.0669    -7.8228    -2.5166 C.ar    
  18 C18           -5.2172    -7.3837    -1.8736 C.ar    
  19 C19           -6.4335    -7.9758    -2.1559 C.ar    
  20 C20           -6.5055    -9.0060    -3.0792 C.ar    
  21 C21           -5.3609    -9.4444    -3.7205 C.ar    
  22 C22           -4.1435    -8.8523    -3.4456 C.ar    
  23 Cl23          -7.8719    -7.4287    -1.3527 Cl      
  24 Cl24          -8.0347    -9.7484    -3.4316 Cl      
  25 O25           -0.8244    -6.5091     0.5910 O.2     
  26 S26           -0.8669     2.2320    -1.1416 S.o2    
  27 O27           -0.7448     3.5920    -0.7482 O.2     
  28 O28           -0.3275     1.7746    -2.3741 O.2     
  29 C29           -2.5786     1.6641    -0.9461 C.3     
  30 H30            0.4180     1.8735     0.7319 H       
  31 H31            1.3513    -6.5178    -0.1377 H       
  32 H32            1.8456    -6.6224    -1.8445 H       
  33 H33            2.1808    -4.3301    -1.0532 H       
  34 H34            0.8408    -4.3513    -2.2245 H       
  35 H35           -1.1959    -2.7627     1.4286 H       
  36 H36           -1.3354    -0.3082     1.5439 H       
  37 H37            1.4697    -0.0005    -1.6685 H       
  38 H38            1.6110    -2.4551    -1.7783 H       
  39 H39           -0.6703    -6.0345    -3.4565 H       
  40 H40            0.3421    -7.4921    -3.3503 H       
  41 H41           -2.0629    -7.9144    -4.0663 H       
  42 H42           -1.5409    -8.8365    -2.6327 H       
  43 H43           -3.2408    -6.7073    -0.2395 H       
  44 H44           -2.5986    -8.3485    -0.4751 H       
  45 H45           -5.1610    -6.5808    -1.1535 H       
  46 H46           -5.4198   -10.2478    -4.4399 H       
  47 H47           -3.2505    -9.1950    -3.9471 H       
  48 H48           -2.8952     1.8132     0.0862 H       
  49 H49           -3.2284     2.2330    -1.6112 H       
  50 H50           -2.6408     0.6049    -1.1958 H       
@<TRIPOS>BOND
   1    1    9 1
   2    1   26 am
   3    1   30 1
   4    2    3 1
   5    2   12 1
   6    2   16 am
   7    3    4 1
   8    3   31 1
   9    3   32 1
  10    4    5 1
  11    4   33 1
  12    4   34 1
  13    5    6 1
  14    6    7 ar
  15    6   11 ar
  16    7    8 ar
  17    7   35 1
  18    8    9 ar
  19    8   36 1
  20    9   10 ar
  21   10   11 ar
  22   10   37 1
  23   11   38 1
  24   12   13 1
  25   12   39 1
  26   12   40 1
  27   13   14 1
  28   13   41 1
  29   13   42 1
  30   14   15 1
  31   14   17 1
  32   15   16 1
  33   15   43 1
  34   15   44 1
  35   16   25 2
  36   17   18 ar
  37   17   22 ar
  38   18   19 ar
  39   18   45 1
  40   19   20 ar
  41   19   23 1
  42   20   21 ar
  43   20   24 1
  44   21   22 ar
  45   21   46 1
  46   22   47 1
  47   26   27 2
  48   26   28 2
  49   26   29 1
  50   29   48 1
  51   29   49 1
  52   29   50 1

#	End of record

