#	Name: ASD00311470
#	Creating user name:	WinNT
#	Creation time:	15. 06. 2019 18:34

#	Modifying user name:	WinNT
#	Modification time:	15. 06. 2019 18:34

#	Program:	/corina/corina34_cracker 3.40 0067  02.08.2006

@<TRIPOS>MOLECULE
ASD00311470
  47   51    0    0    0
SMALL
NO_CHARGES


@<TRIPOS>ATOM
   1 C1            -0.0169     1.3920     0.0097 C.ar    
   2 C2             0.0021    -0.0041     0.0020 C.ar    
   3 C3             1.1980    -0.6740    -0.0130 C.ar    
   4 C4             2.4000     0.0420    -0.0206 C.ar    
   5 C5             2.3794     1.4409    -0.0129 C.ar    
   6 C6             1.1818     2.1079     0.0021 C.ar    
   7 C7            -1.3098     2.1143     0.0197 C.ar    
   8 C8            -1.3295     3.5100     0.0274 C.ar    
   9 C9            -2.5312     4.1813     0.0363 C.ar    
  10 C10           -3.7302     3.4663     0.0376 C.ar    
  11 C11           -3.7104     2.0705     0.0299 C.ar    
  12 C12           -2.5087     1.3993     0.0157 C.ar    
  13 C13            3.6861    -0.6765    -0.0362 C.2     
  14 O14            3.7034    -1.8996    -0.0425 O.co2   
  15 O15            4.7367    -0.0498    -0.0429 O.co2   
  16 C16           -7.2092     4.6947    -0.6860 C.2     
  17 C17           -6.1038     3.8907    -0.8903 C.2     
  18 C18           -6.1406     2.9192    -1.9321 C.2     
  19 C19           -7.2820     2.8015    -2.7169 C.2     
  20 C20           -8.3832     3.6468    -2.4666 C.2     
  21 N21           -8.3287     4.5551    -1.4803 N.am    
  22 C22           -5.0228     4.1883     0.0476 C.2     
  23 C23           -5.2981     5.1634     0.9118 C.2     
  24 S24           -6.9064     5.8065     0.6451 S.3     
  25 C25           -8.2656    -0.1787    -4.7843 C.ar    
  26 C26           -8.2443     0.7316    -3.7496 C.ar    
  27 C27           -7.3411     1.7999    -3.8040 C.ar    
  28 C28           -6.4957     1.8943    -4.9159 C.ar    
  29 C29           -6.5846     0.9395    -5.9059 C.ar    
  30 N30           -7.4506    -0.0526    -5.8150 N.ar    
  31 O31           -9.3894     3.5518    -3.1498 O.2     
  32 O32           -5.0733     2.1184    -2.1559 O.3     
  33 H33           -0.9259    -0.5565     0.0083 H       
  34 H34            1.2124    -1.7539    -0.0186 H       
  35 H35            3.3064     1.9949    -0.0184 H       
  36 H36            1.1656     3.1878     0.0077 H       
  37 H37           -0.4020     4.0631     0.0268 H       
  38 H38           -2.5465     5.2612     0.0426 H       
  39 H39           -4.6380     1.5172     0.0309 H       
  40 H40           -2.4933     0.3195     0.0056 H       
  41 H41           -9.0951     5.1282    -1.3222 H       
  42 H42           -4.6183     5.5141     1.6742 H       
  43 H43           -8.9557    -1.0088    -4.7493 H       
  44 H44           -8.9142     0.6224    -2.9095 H       
  45 H45           -5.7847     2.7033    -4.9968 H       
  46 H46           -5.9367     1.0037    -6.7676 H       
  47 H47           -5.1962     1.4934    -2.8836 H       
@<TRIPOS>BOND
   1    1    2 ar
   2    1    6 ar
   3    1    7 1
   4    2    3 ar
   5    2   33 1
   6    3    4 ar
   7    3   34 1
   8    4    5 ar
   9    4   13 1
  10    5    6 ar
  11    5   35 1
  12    6   36 1
  13    7    8 ar
  14    7   12 ar
  15    8    9 ar
  16    8   37 1
  17    9   10 ar
  18    9   38 1
  19   10   11 ar
  20   10   22 1
  21   11   12 ar
  22   11   39 1
  23   12   40 1
  24   13   14 ar
  25   13   15 ar
  26   16   17 2
  27   16   21 1
  28   16   24 1
  29   17   18 1
  30   17   22 1
  31   18   19 2
  32   18   32 1
  33   19   20 1
  34   19   27 1
  35   20   21 am
  36   20   31 2
  37   21   41 1
  38   22   23 2
  39   23   24 1
  40   23   42 1
  41   25   26 ar
  42   25   30 ar
  43   25   43 1
  44   26   27 ar
  45   26   44 1
  46   27   28 ar
  47   28   29 ar
  48   28   45 1
  49   29   30 ar
  50   29   46 1
  51   32   47 1

#	End of record

