#	Name: ASD01841015
#	Creating user name:	WinNT
#	Creation time:	15. 06. 2019 19:38

#	Modifying user name:	WinNT
#	Modification time:	15. 06. 2019 19:38

#	Program:	/corina/corina34_cracker 3.40 0067  02.08.2006

@<TRIPOS>MOLECULE
ASD01841015
 106  111    0    0    0
SMALL
NO_CHARGES


@<TRIPOS>ATOM
   1 N1            -0.0178     1.4648     0.0101 N.4     
   2 C2             0.0021    -0.0041     0.0020 C.3     
   3 C3            -1.4333    -0.5336     0.0129 C.3     
   4 C4            -1.4126    -2.0635     0.0045 C.3     
   5 C5            -2.8479    -2.5931     0.0153 C.3     
   6 C6            -2.8282    -4.0955     0.1309 C.ar    
   7 C7            -3.5901    -2.0086     1.1895 C.ar    
   8 O8            -3.5035    -2.2172    -1.1975 O.3     
   9 C9            -3.8432    -4.8455    -0.4331 C.ar    
  10 C10           -3.8251    -6.2237    -0.3270 C.ar    
  11 C11           -2.7918    -6.8518     0.3426 C.ar    
  12 C12           -1.7763    -6.1019     0.9059 C.ar    
  13 C13           -1.7921    -4.7240     0.7960 C.ar    
  14 C14           -4.9546    -1.8015     1.1110 C.ar    
  15 C15           -5.6354    -1.2654     2.1880 C.ar    
  16 C16           -4.9518    -0.9368     3.3437 C.ar    
  17 C17           -3.5874    -1.1447     3.4225 C.ar    
  18 C18           -2.9074    -1.6849     2.3470 C.ar    
  19 C19            1.3597     1.9714    -0.0003 C.3     
  20 C20            1.3462     3.4988     0.0898 C.3     
  21 C21            0.5820     4.0687    -1.1087 C.3     
  22 C22           -0.8299     3.4760    -1.1300 C.3     
  23 C23           -0.7357     1.9494    -1.1749 C.3     
  24 C24            0.4960     5.5912    -0.9837 C.3     
  25 C25            1.9080     6.1830    -0.9525 C.3     
  26 C26            1.8144     7.7097    -0.9076 C.3     
  27 N27            1.1050     8.1952    -2.0974 N.4     
  28 C28           -0.2729     7.6894    -2.0966 C.3     
  29 C29           -0.2596     6.1619    -2.1873 C.3     
  30 C30            1.0858     9.6640    -2.0889 C.3     
  31 C31            1.7972     7.7244    -3.3045 C.3     
  32 C32           -0.7025     1.9371     1.2209 C.3     
  33 C33            0.3466    10.1716    -3.3285 C.3     
  34 C34            0.3267    11.7015    -3.3197 C.3     
  35 C35           -0.4126    12.2091    -4.5593 C.3     
  36 O36            0.2565    11.7482    -5.7349 O.3     
  37 C37           -1.8267    11.6882    -4.5493 C.ar    
  38 C38           -0.4322    13.7159    -4.5506 C.ar    
  39 C39           -0.4522    14.4138    -5.7437 C.ar    
  40 C40           -0.4702    15.7960    -5.7357 C.ar    
  41 C41           -0.4686    16.4803    -4.5346 C.ar    
  42 C42           -0.4496    15.7824    -3.3415 C.ar    
  43 C43           -0.4360    14.4002    -3.3495 C.ar    
  44 C44           -2.4862    11.4561    -5.7418 C.ar    
  45 C45           -3.7833    10.9784    -5.7327 C.ar    
  46 C46           -4.4208    10.7323    -4.5310 C.ar    
  47 C47           -3.7609    10.9635    -3.3385 C.ar    
  48 C48           -2.4623    11.4372    -3.3477 C.ar    
  49 H49            0.5123    -0.3556    -0.8948 H       
  50 H50            0.5293    -0.3651     0.8851 H       
  51 H51           -1.9435    -0.1821     0.9097 H       
  52 H52           -1.9605    -0.1726    -0.8702 H       
  53 H53           -0.9024    -2.4150    -0.8923 H       
  54 H54           -0.8854    -2.4246     0.8875 H       
  55 H55           -3.0792    -2.5593    -1.9963 H       
  56 H56           -4.6506    -4.3547    -0.9563 H       
  57 H57           -4.6185    -6.8096    -0.7670 H       
  58 H58           -2.7780    -7.9285     0.4261 H       
  59 H59           -0.9691    -6.5926     1.4293 H       
  60 H60           -0.9987    -4.1381     1.2361 H       
  61 H61           -5.4887    -2.0582     0.2081 H       
  62 H62           -6.7013    -1.1029     2.1264 H       
  63 H63           -5.4836    -0.5173     4.1849 H       
  64 H64           -3.0533    -0.8877     4.3253 H       
  65 H65           -1.8414    -1.8474     2.4086 H       
  66 H66            1.9032     1.5624     0.8514 H       
  67 H67            1.8514     1.6667    -0.9242 H       
  68 H68            0.8549     3.8046     1.0135 H       
  69 H69            2.3699     3.8731     0.0801 H       
  70 H70            1.1014     3.8063    -2.0304 H       
  71 H71           -1.3664     3.7813    -0.2316 H       
  72 H72           -1.3617     3.8340    -2.0116 H       
  73 H73           -0.1994     1.6452    -2.0737 H       
  74 H74           -1.7393     1.5242    -1.1903 H       
  75 H75           -0.0291     5.8523    -0.0649 H       
  76 H76            2.4335     5.8244    -0.0674 H       
  77 H77            2.4505     5.8778    -1.8473 H       
  78 H78            1.2721     8.0138    -0.0124 H       
  79 H79            2.8181     8.1343    -0.8851 H       
  80 H80           -0.7708     7.9939    -1.1761 H       
  81 H81           -0.8103     8.0990    -2.9519 H       
  82 H82            0.2378     5.8562    -3.1077 H       
  83 H83           -1.2836     5.7882    -2.1848 H       
  84 H84            0.5755    10.0156    -1.1922 H       
  85 H85            2.1086    10.0408    -2.0961 H       
  86 H86            1.8154     6.6346    -3.3112 H       
  87 H87            1.2711     8.0844    -4.1887 H       
  88 H88            2.8186     8.1050    -3.3094 H       
  89 H89           -0.1728     1.5755     2.1023 H       
  90 H90           -0.7179     3.0269     1.2279 H       
  91 H91           -1.7249     1.5592     1.2310 H       
  92 H92            0.8570     9.8201    -4.2252 H       
  93 H93           -0.6762     9.7949    -3.3213 H       
  94 H94           -0.1837    12.0530    -2.4230 H       
  95 H95            1.3495    12.0782    -3.3269 H       
  96 H96            1.1736    12.0460    -5.8077 H       
  97 H97           -0.4534    13.8792    -6.6821 H       
  98 H98           -0.4850    16.3413    -6.6678 H       
  99 H99           -0.4819    17.5602    -4.5283 H       
 100 H100          -0.4480    16.3171    -2.4031 H       
 101 H101          -0.4211    13.8549    -2.4173 H       
 102 H102          -1.9881    11.6484    -6.6807 H       
 103 H103          -4.2988    10.7977    -6.6643 H       
 104 H104          -5.4344    10.3597    -4.5239 H       
 105 H105          -4.2591    10.7716    -2.3997 H       
 106 H106          -1.9468    11.6178    -2.4161 H       
@<TRIPOS>BOND
   1    1    2 1
   2    1   19 1
   3    1   32 1
   4    1   23 1
   5    2    3 1
   6    2   49 1
   7    2   50 1
   8    3    4 1
   9    3   51 1
  10    3   52 1
  11    4    5 1
  12    4   53 1
  13    4   54 1
  14    5    6 1
  15    5    7 1
  16    5    8 1
  17    6    9 ar
  18    6   13 ar
  19    7   14 ar
  20    7   18 ar
  21    8   55 1
  22    9   10 ar
  23    9   56 1
  24   10   11 ar
  25   10   57 1
  26   11   12 ar
  27   11   58 1
  28   12   13 ar
  29   12   59 1
  30   13   60 1
  31   14   15 ar
  32   14   61 1
  33   15   16 ar
  34   15   62 1
  35   16   17 ar
  36   16   63 1
  37   17   18 ar
  38   17   64 1
  39   18   65 1
  40   19   20 1
  41   19   66 1
  42   19   67 1
  43   20   21 1
  44   20   68 1
  45   20   69 1
  46   21   22 1
  47   21   24 1
  48   21   70 1
  49   22   23 1
  50   22   71 1
  51   22   72 1
  52   23   73 1
  53   23   74 1
  54   24   25 1
  55   24   29 1
  56   24   75 1
  57   25   26 1
  58   25   76 1
  59   25   77 1
  60   26   27 1
  61   26   78 1
  62   26   79 1
  63   27   28 1
  64   27   30 1
  65   27   31 1
  66   28   29 1
  67   28   80 1
  68   28   81 1
  69   29   82 1
  70   29   83 1
  71   30   33 1
  72   30   84 1
  73   30   85 1
  74   31   86 1
  75   31   87 1
  76   31   88 1
  77   32   89 1
  78   32   90 1
  79   32   91 1
  80   33   34 1
  81   33   92 1
  82   33   93 1
  83   34   35 1
  84   34   94 1
  85   34   95 1
  86   35   36 1
  87   35   37 1
  88   35   38 1
  89   36   96 1
  90   37   44 ar
  91   37   48 ar
  92   38   39 ar
  93   38   43 ar
  94   39   40 ar
  95   39   97 1
  96   40   41 ar
  97   40   98 1
  98   41   42 ar
  99   41   99 1
 100   42   43 ar
 101   42  100 1
 102   43  101 1
 103   44   45 ar
 104   44  102 1
 105   45   46 ar
 106   45  103 1
 107   46   47 ar
 108   46  104 1
 109   47   48 ar
 110   47  105 1
 111   48  106 1

#	End of record

