#	Name: ASD01917565
#	Creating user name:	WinNT
#	Creation time:	15. 06. 2019 20:09

#	Modifying user name:	WinNT
#	Modification time:	15. 06. 2019 20:09

#	Program:	/corina/corina34_cracker 3.40 0067  02.08.2006

@<TRIPOS>MOLECULE
ASD01917565
  36   39    0    0    0
SMALL
NO_CHARGES


@<TRIPOS>ATOM
   1 N1            -1.6741     1.4583     1.1501 N.ar    
   2 C2            -1.8965     0.1674     1.2914 C.ar    
   3 C3            -0.9659    -0.6501     1.9055 C.ar    
   4 C4             0.2171    -0.0994     2.3779 C.ar    
   5 C5             0.4242     1.2595     2.2158 C.ar    
   6 C6            -0.5568     2.0235     1.5875 C.ar    
   7 C7            -0.3499     3.4818     1.4061 C.2     
   8 N8             0.7196     4.1931     1.7912 N.2     
   9 N9             0.5072     5.4187     1.4499 N.2     
  10 N10           -0.6407     5.4994     0.8730 N.pl3   
  11 N11           -1.1795     4.3295     0.8297 N.2     
  12 C12           -1.2124     6.6747     0.3657 C.ar    
  13 C13           -0.5294     7.8786     0.4658 C.ar    
  14 C14           -1.0967     9.0395    -0.0365 C.ar    
  15 C15           -2.3464     8.9964    -0.6386 C.ar    
  16 C16           -3.0266     7.7954    -0.7380 C.ar    
  17 C17           -2.4597     6.6341    -0.2423 C.ar    
  18 O18           -0.4296    10.2193     0.0610 O.3     
  19 C19           -0.6577    10.9926     1.1550 C.ar    
  20 C20           -1.4657    10.5309     2.1897 C.ar    
  21 C21           -1.6684    11.3551     3.2846 C.ar    
  22 C22           -1.0663    12.5994     3.3134 C.ar    
  23 N23           -0.3065    13.0071     2.3159 N.ar    
  24 C24           -0.0837    12.2513     1.2589 C.ar    
  25 F25           -4.2432     7.7555    -1.3240 F       
  26 H26           -2.8183    -0.2579     0.9230 H       
  27 H27           -1.1578    -1.7071     2.0168 H       
  28 H28            0.9594    -0.7172     2.8614 H       
  29 H29            1.3333     1.7212     2.5718 H       
  30 H30            0.4429     7.9111     0.9349 H       
  31 H31           -2.7885     9.9009    -1.0296 H       
  32 H32           -2.9899     5.6968    -0.3246 H       
  33 H33           -1.9238     9.5541     2.1402 H       
  34 H34           -2.2897    11.0296     4.1058 H       
  35 H35           -1.2207    13.2463     4.1644 H       
  36 H36            0.5486    12.6177     0.4637 H       
@<TRIPOS>BOND
   1    1    2 ar
   2    1    6 ar
   3    2    3 ar
   4    2   26 1
   5    3    4 ar
   6    3   27 1
   7    4    5 ar
   8    4   28 1
   9    5    6 ar
  10    5   29 1
  11    6    7 1
  12    7    8 1
  13    7   11 2
  14    8    9 2
  15    9   10 1
  16   10   11 1
  17   10   12 1
  18   12   13 ar
  19   12   17 ar
  20   13   14 ar
  21   13   30 1
  22   14   15 ar
  23   14   18 1
  24   15   16 ar
  25   15   31 1
  26   16   17 ar
  27   16   25 1
  28   17   32 1
  29   18   19 1
  30   19   20 ar
  31   19   24 ar
  32   20   21 ar
  33   20   33 1
  34   21   22 ar
  35   21   34 1
  36   22   23 ar
  37   22   35 1
  38   23   24 ar
  39   24   36 1

#	End of record

