#	Name: ASD01840536
#	Creating user name:	WinNT
#	Creation time:	15. 06. 2019 19:37

#	Modifying user name:	WinNT
#	Modification time:	15. 06. 2019 19:37

#	Program:	/corina/corina34_cracker 3.40 0067  02.08.2006

@<TRIPOS>MOLECULE
ASD01840536
  52   56    0    0    0
SMALL
NO_CHARGES


@<TRIPOS>ATOM
   1 C1            -1.3544     1.1492    -0.2405 C.3     
   2 C2            -0.6440    -0.1742    -0.1188 C.ar    
   3 C3             0.0236    -0.7342    -1.2173 C.ar    
   4 C4             0.2100    -0.2813    -2.6045 C.2     
   5 O5            -0.2308     0.7554    -3.0621 O.2     
   6 N6             0.9373    -1.1773    -3.2939 N.am    
   7 C7             1.2826    -2.2901    -2.4022 C.3     
   8 C8             0.6697    -1.9631    -1.0619 C.ar    
   9 N9             0.6545    -2.5885     0.0934 N.ar    
  10 C10            0.0297    -2.0806     1.1485 C.ar    
  11 N11            0.0398    -2.7740     2.3470 N.3     
  12 C12            1.2146    -2.4189     3.1498 C.3     
  13 C13            1.1711    -3.2055     4.4649 C.3     
  14 C14            1.5286    -4.6636     4.1668 C.3     
  15 O15            1.3410    -5.4492     5.3456 O.3     
  16 C16            2.5007    -5.5374     6.1759 C.3     
  17 C17            2.1861    -6.3973     7.4017 C.3     
  18 C18            0.7576    -6.2845     7.9379 C.3     
  19 C19            2.8741    -7.7600     7.5041 C.3     
  20 C20            3.3077    -6.6135     8.4197 C.3     
  21 C21            0.6348    -5.1982     3.0546 C.3     
  22 C22           -0.8744    -5.0114     3.1506 C.3     
  23 C23           -0.0585    -4.2179     2.1191 C.3     
  24 C24           -0.6303    -0.8559     1.0688 C.ar    
  25 C25           -1.3287    -0.2892     2.2779 C.3     
  26 H26           -0.6626     1.9564     0.0004 H       
  27 H27           -1.7175     1.2742    -1.2606 H       
  28 H28           -2.1968     1.1743     0.4507 H       
  29 H29            1.1915    -1.1010    -4.2269 H       
  30 H30            0.8669    -3.2214    -2.7870 H       
  31 H31            2.3654    -2.3731    -2.3087 H       
  32 H32            2.1219    -2.6732     2.6018 H       
  33 H33            1.2018    -1.3500     3.3630 H       
  34 H34            1.8921    -2.7869     5.1671 H       
  35 H35            0.1694    -3.1529     4.8913 H       
  36 H36            2.5708    -4.7242     3.8531 H       
  37 H37            3.3166    -5.9913     5.6134 H       
  38 H38            2.7935    -4.5382     6.4985 H       
  39 H39            0.0684    -6.1350     7.1068 H       
  40 H40            0.4949    -7.2002     8.4675 H       
  41 H41            0.6918    -5.4379     8.6213 H       
  42 H42            2.3089    -8.5766     7.9534 H       
  43 H43            3.5508    -8.0440     6.6982 H       
  44 H44            4.2697    -6.1432     8.2161 H       
  45 H45            3.0278    -6.6758     9.4713 H       
  46 H46            0.9690    -6.1353     2.6094 H       
  47 H47           -1.5065    -5.8184     2.7801 H       
  48 H48           -1.2610    -4.4683     4.0129 H       
  49 H49           -0.1758    -4.5195     1.0783 H       
  50 H50           -2.3836    -0.5622     2.2495 H       
  51 H51           -0.8734    -0.6921     3.1826 H       
  52 H52           -1.2343     0.7968     2.2763 H       
@<TRIPOS>BOND
   1    1    2 1
   2    1   26 1
   3    1   27 1
   4    1   28 1
   5    2   24 ar
   6    2    3 ar
   7    3    8 ar
   8    3    4 1
   9    4    5 2
  10    4    6 am
  11    6    7 1
  12    6   29 1
  13    7    8 1
  14    7   30 1
  15    7   31 1
  16    8    9 ar
  17    9   10 ar
  18   10   11 1
  19   10   24 ar
  20   11   23 1
  21   11   12 1
  22   12   13 1
  23   12   32 1
  24   12   33 1
  25   13   14 1
  26   13   34 1
  27   13   35 1
  28   14   15 1
  29   14   21 1
  30   14   36 1
  31   15   16 1
  32   16   17 1
  33   16   37 1
  34   16   38 1
  35   17   20 1
  36   17   18 1
  37   17   19 1
  38   18   39 1
  39   18   40 1
  40   18   41 1
  41   19   20 1
  42   19   42 1
  43   19   43 1
  44   20   44 1
  45   20   45 1
  46   21   23 1
  47   21   22 1
  48   21   46 1
  49   22   23 1
  50   22   47 1
  51   22   48 1
  52   23   49 1
  53   24   25 1
  54   25   50 1
  55   25   51 1
  56   25   52 1

#	End of record

