#	Name: ASD07110018
#	Creating user name:	WinNT
#	Creation time:	15. 06. 2019 21:09

#	Modifying user name:	WinNT
#	Modification time:	15. 06. 2019 21:09

#	Program:	/corina/corina34_cracker 3.40 0067  02.08.2006

@<TRIPOS>MOLECULE
ASD07110018
 434  443    0    0    0
SMALL
NO_CHARGES


@<TRIPOS>ATOM
   1 C1             0.7668     0.3305     4.9712 C.2     
   2 O2             1.8130    -0.2536     5.1586 O.2     
   3 N3             2.1139     1.9282     3.7313 N.3     
   4 C4             0.7492     1.6066     4.1698 C.3     
   5 C5            -0.0184    -2.5747     5.4631 C.2     
   6 O6             0.3987    -2.4088     4.3364 O.2     
   7 N7            -0.3811    -0.1647     5.4750 N.am    
   8 C8            -0.5082    -1.3973     6.2662 C.3     
   9 C9            -2.0044    -1.5755     6.5997 C.3     
  10 C10           -2.7078    -0.7375     5.4996 C.3     
  11 C11           -1.7162     0.4433     5.3293 C.3     
  12 C12           -0.2279    -6.2154     5.7165 C.2     
  13 O13           -1.0183    -6.1618     6.6348 O.2     
  14 N14           -0.0438    -3.8120     5.9969 N.am    
  15 C15            0.4323    -4.9565     5.2162 C.3     
  16 C16            1.9496    -5.0815     5.3678 C.3     
  17 O17            2.2687    -5.3912     6.7259 O.3     
  18 C18            0.4315    -9.7857     5.3957 C.2     
  19 O19            1.3120    -9.6530     4.5722 O.2     
  20 N20            0.0600    -7.4008     5.1435 N.am    
  21 C21           -0.4959    -8.6372     5.6990 C.3     
  22 C22           -1.8649    -8.9078     5.0717 C.3     
  23 C23           -1.7756    -8.7274     3.5550 C.3     
  24 C24           -1.0086    -9.9028     2.9459 C.3     
  25 C25           -3.1857    -8.6771     2.9635 C.3     
  26 C26            0.9471   -12.6128     4.3761 C.2     
  27 O27            0.0530   -12.1684     3.6877 O.2     
  28 N28            0.2824   -10.9603     6.0395 N.am    
  29 C29            1.0846   -12.1709     5.8103 C.3     
  30 C30            0.5404   -13.2662     6.7514 C.3     
  31 C31           -0.9022   -12.7806     7.0521 C.3     
  32 C32           -0.7077   -11.2421     7.0948 C.3     
  33 C33            1.3870   -15.3026     2.2898 C.2     
  34 O34            1.1991   -15.9831     3.2760 O.2     
  35 N35            1.8178   -13.5019     3.8585 N.am    
  36 C36            1.7528   -13.8481     2.4364 C.3     
  37 C37            3.1155   -13.5970     1.7876 C.3     
  38 C38            3.4215   -12.1217     1.8167 C.2     
  39 C39            3.1936   -11.2393     0.8310 C.2     
  40 N40            3.6004    -9.9916     1.2184 N.pl3   
  41 C41            4.1132   -10.0419     2.4953 C.ar    
  42 C42            4.6523    -9.0854     3.3490 C.ar    
  43 C43            5.0907    -9.4556     4.6017 C.ar    
  44 C44            5.0001   -10.7752     5.0220 C.ar    
  45 C45            4.4743   -11.7313     4.1993 C.ar    
  46 C46            4.0182   -11.3773     2.9283 C.ar    
  47 C47            1.4230   -17.7768    -0.4010 C.2     
  48 O48            1.6300   -17.0056    -1.3138 O.2     
  49 N49            1.2686   -15.8473     1.0627 N.am    
  50 C50            0.9130   -17.2613     0.9201 C.3     
  51 C51           -0.6086   -17.4124     0.9734 C.3     
  52 C52           -1.0998   -17.0648     2.3551 C.ar    
  53 C53           -1.4500   -15.7614     2.6554 C.ar    
  54 C54           -1.9001   -15.4400     3.9213 C.ar    
  55 C55           -2.0011   -16.4265     4.8915 C.ar    
  56 O56           -2.4440   -16.1130     6.1374 O.3     
  57 C57           -1.6495   -17.7337     4.5875 C.ar    
  58 C58           -1.2048   -18.0508     3.3186 C.ar    
  59 C59            1.3967   -19.4187    -2.9704 C.2     
  60 O60            0.3917   -18.7493    -2.8572 O.2     
  61 N61            1.6491   -19.0949    -0.5681 N.am    
  62 C62            2.2430   -19.7181    -1.7599 C.3     
  63 C63            2.2813   -21.2405    -1.5100 C.3     
  64 C64            1.1891   -21.4424    -0.4266 C.3     
  65 C65            1.3477   -20.1500     0.4166 C.3     
  66 C66            1.5508   -20.2463    -6.5711 C.2     
  67 O67            2.5765   -20.8847    -6.4649 O.2     
  68 N68            1.7567   -19.8947    -4.1788 N.am    
  69 C69            0.9340   -19.6036    -5.3555 C.3     
  70 C70            2.5625   -19.9850    -9.5964 C.2     
  71 O71            2.8438   -18.8966    -9.1411 O.2     
  72 N72            0.9625   -20.1117    -7.7762 N.am    
  73 C73            1.4995   -20.8256    -8.9373 C.3     
  74 C74            0.3721   -21.0969    -9.9354 C.3     
  75 C75           -0.6179   -22.0561    -9.3265 C.2     
  76 O76           -0.4855   -22.4149    -8.1756 O.2     
  77 N77           -1.6505   -22.5153   -10.0610 N.am    
  78 C78            4.3504   -20.0107   -12.7848 C.2     
  79 O79            3.6402   -20.8822   -13.2397 O.2     
  80 N80            3.2006   -20.4426   -10.6918 N.am    
  81 C81            4.2339   -19.6253   -11.3325 C.3     
  82 C82            5.5748   -19.8588   -10.6338 C.3     
  83 C83            5.4939   -19.3520    -9.1924 C.3     
  84 C84            6.8348   -19.5854    -8.4936 C.3     
  85 N85            6.7573   -19.1001    -7.1135 N.pl3   
  86 C86            7.8500   -19.2045    -6.2857 C.2     
  87 N87            7.7810   -18.7728    -5.0578 N.2     
  88 N88            9.0155   -19.7644    -6.7531 N.pl3   
  89 C89            6.7378   -19.4231   -15.4900 C.2     
  90 O90            7.3744   -18.5370   -14.9604 O.2     
  91 N91            5.2439   -19.3869   -13.5779 N.am    
  92 C92            5.3571   -19.7616   -14.9897 C.3     
  93 C93            4.3161   -18.9933   -15.8063 C.3     
  94 C94            8.5305   -18.4126   -17.7402 C.2     
  95 O95            7.5437   -17.7198   -17.6092 O.2     
  96 N96            7.2650   -20.1050   -16.5261 N.am    
  97 C97            8.5485   -19.8118   -17.1806 C.3     
  98 C98            8.7231   -20.8325   -18.3248 C.3     
  99 C99            7.2671   -21.2857   -18.6113 C.3     
 100 C100           6.6534   -21.2725   -17.1866 C.3     
 101 C101          10.5718   -16.4744   -20.0725 C.2     
 102 O102          11.3539   -17.3780   -20.2793 O.2     
 103 N103           9.6110   -17.9313   -18.3862 N.am    
 104 C104           9.5935   -16.5712   -18.9303 C.3     
 105 C105           9.9885   -15.5787   -17.8349 C.3     
 106 C106           8.9573   -15.6281   -16.7058 C.3     
 107 C107          11.3667   -15.9495   -17.2836 C.3     
 108 C108          11.7487   -13.9040   -22.3900 C.2     
 109 O109          11.2846   -13.0070   -21.7186 O.2     
 110 N110          10.5776   -15.3837   -20.8642 N.am    
 111 C111          11.4460   -15.3390   -22.0432 C.3     
 112 C112          10.7399   -16.0108   -23.2226 C.3     
 113 C113          10.5442   -17.4978   -22.9201 C.3     
 114 C114           9.8487   -18.1594   -24.0817 C.2     
 115 O115           9.5410   -17.5084   -25.0520 O.2     
 116 O116           9.5710   -19.4720   -24.0385 O.3     
 117 C117          11.8731   -11.5814   -24.5890 C.2     
 118 O118          10.9028   -12.2155   -24.9460 O.2     
 119 N119          12.5350   -13.6175   -23.4465 N.am    
 120 C120          12.9187   -12.2302   -23.7191 C.3     
 121 C121          14.2681   -12.2065   -24.4399 C.3     
 122 C122          15.3394   -12.7292   -23.5179 C.2     
 123 O123          15.0730   -12.9862   -22.3630 O.2     
 124 N124          16.5935   -12.9112   -23.9768 N.am    
 125 C125          11.6218    -8.5308   -26.5874 C.2     
 126 O126          12.7985    -8.2739   -26.4450 O.2     
 127 N127          12.0161   -10.2966   -24.9701 N.am    
 128 C128          10.9996    -9.6659   -25.8158 C.3     
 129 C129           9.8689    -9.1262   -24.9376 C.3     
 130 C130           9.1564   -10.2925   -24.2497 C.3     
 131 C131           8.0427    -9.7609   -23.3847 C.2     
 132 O132           7.8389    -8.5669   -23.3244 O.2     
 133 N133           7.2731   -10.6124   -22.6782 N.am    
 134 C134          10.4107    -5.6961   -28.5523 C.2     
 135 O135           9.2599    -5.8854   -28.2196 O.2     
 136 N136          10.8706    -7.8011   -27.4358 N.am    
 137 C137          11.4755    -6.6976   -28.1859 C.3     
 138 C138          12.1236    -7.2422   -29.4603 C.3     
 139 C139          13.2867    -8.1636   -29.0874 C.3     
 140 C140          13.9251    -8.7000   -30.3427 C.2     
 141 O141          13.4941    -8.3783   -31.4246 O.2     
 142 O142          14.9727    -9.5351   -30.2588 O.3     
 143 C143          10.1327    -2.8507   -30.8304 C.2     
 144 O144          11.1992    -3.0943   -31.3540 O.2     
 145 N145          10.7373    -4.5900   -29.2497 N.am    
 146 C146           9.7021    -3.6164   -29.6059 C.3     
 147 C147           9.4949    -2.6440   -28.4430 C.3     
 148 C148           8.9387    -3.4029   -27.2365 C.3     
 149 C149           8.7315    -2.4304   -26.0736 C.3     
 150 N150           8.1990    -3.1571   -24.9184 N.pl3   
 151 C151           7.9310    -2.4866   -23.7484 C.2     
 152 N152           7.4573    -3.1331   -22.7206 N.2     
 153 N153           8.1628    -1.1341   -23.6626 N.pl3   
 154 C154           9.0649     0.1905   -32.5547 C.2     
 155 O155           8.3013     0.4949   -31.6630 O.2     
 156 N156           9.3326    -1.8953   -31.3436 N.am    
 157 C157           9.7512    -1.1509   -32.5340 C.3     
 158 C158           9.3691    -1.9388   -33.7887 C.3     
 159 C159          10.1492    -3.2275   -33.8296 C.ar    
 160 C160           9.6342    -4.3662   -33.2387 C.ar    
 161 C161          10.3498    -5.5483   -33.2762 C.ar    
 162 C162          11.5801    -5.5919   -33.9049 C.ar    
 163 C163          12.0946    -4.4535   -34.4966 C.ar    
 164 C164          11.3771    -3.2724   -34.4629 C.ar    
 165 C165           7.2714     2.0843   -34.4068 C.2     
 166 O166           7.0102     0.9827   -34.8418 O.2     
 167 N167           9.2996     1.0521   -33.5642 N.am    
 168 C168           8.5512     2.3090   -33.6435 C.3     
 169 C169           9.3966     3.3613   -34.3638 C.3     
 170 C170          10.6040     3.6951   -33.5262 C.2     
 171 O171          10.8145     3.0887   -32.4971 O.2     
 172 N172          11.4500     4.6673   -33.9206 N.am    
 173 C173           5.3041     2.8534   -36.7476 C.2     
 174 O174           6.4042     3.0275   -37.2276 O.2     
 175 N175           6.4171     3.1075   -34.6062 N.am    
 176 C176           5.1240     2.8670   -35.2514 C.3     
 177 C177           4.1468     3.9791   -34.8654 C.3     
 178 C178           3.8626     3.9074   -33.3872 C.2     
 179 O179           4.3076     2.9919   -32.7279 O.2     
 180 N180           3.1140     4.8607   -32.7979 N.am    
 181 C181           3.1571     3.3671   -39.6000 C.2     
 182 O182           2.2400     3.6998   -38.8795 O.2     
 183 N183           4.2426     2.6479   -37.5522 N.am    
 184 C184           4.3953     2.7467   -39.0059 C.3     
 185 C185           4.5976     1.3487   -39.5937 C.3     
 186 C186           3.4810     0.4236   -39.1053 C.3     
 187 C187           2.1427     0.8919   -39.6804 C.3     
 188 C188           5.9512     0.7966   -39.1423 C.3     
 189 C189           1.7341     3.6210   -42.9577 C.2     
 190 O190           2.6168     2.9457   -43.4433 O.2     
 191 N191           3.0688     3.5522   -40.9321 N.am    
 192 C192           1.8280     4.0631   -41.5201 C.3     
 193 C193           1.8246     5.5917   -41.4553 C.3     
 194 C194           1.7946     6.0334   -40.0148 C.2     
 195 C195           2.6741     6.8641   -39.4232 C.2     
 196 N196           2.2785     6.9966   -38.1196 N.pl3   
 197 C197           1.1702     6.2417   -37.9597 C.2     
 198 N198           0.8838     5.6726   -39.0986 N.2     
 199 C199          -0.2948     4.5075   -45.8664 C.2     
 200 O200          -0.7917     5.4579   -45.3001 O.2     
 201 N201           0.6693     3.9761   -43.7037 N.am    
 202 C202           0.5781     3.5463   -45.1013 C.3     
 203 C203          -0.0300     2.1438   -45.1649 C.3     
 204 C204           0.9176     1.1462   -44.4958 C.3     
 205 C205           0.2559    -0.2325   -44.4480 C.3     
 206 C206           2.2175     1.0606   -45.2982 C.3     
 207 C207          -1.9665     4.5429   -49.1172 C.2     
 208 O208          -1.7071     3.3766   -49.3258 O.2     
 209 N209          -0.5232     4.3109   -47.1801 N.am    
 210 C210          -1.3717     5.2452   -47.9238 C.3     
 211 C211          -0.5302     6.4319   -48.3977 C.3     
 212 C212          -0.0288     7.2182   -47.1847 C.3     
 213 C213           0.8001     8.3871   -47.6514 C.2     
 214 O214           0.9727     8.5729   -48.8374 O.2     
 215 N215           1.3494     9.2259   -46.7508 N.am    
 216 C216          -2.3907     4.5773   -52.2615 C.2     
 217 O217          -1.3232     5.1266   -52.1253 O.2     
 218 N218          -2.7866     5.2107   -49.9525 N.am    
 219 C219          -3.3647     4.5279   -51.1126 C.3     
 220 C220          -4.6663     5.2230   -51.5171 C.3     
 221 C221          -5.6826     5.0669   -50.4154 C.2     
 222 C222          -6.3426     6.0667   -49.8002 C.2     
 223 N223          -7.1630     5.4865   -48.8706 N.pl3   
 224 C224          -6.9755     4.1515   -48.9502 C.2     
 225 N225          -6.0925     3.9077   -49.8796 N.2     
 226 O226          -2.7092     4.0112   -53.4361 O.3     
 227 H227           2.5161     1.1632     3.2105 H       
 228 H228           2.1288     2.7805     3.1914 H       
 229 H229           0.1079     1.4792     3.2977 H       
 230 H230           0.3654     2.4184     4.7876 H       
 231 H231           0.0710    -1.3091     7.1854 H       
 232 H232          -2.2930    -2.6242     6.5293 H       
 233 H233          -2.2288    -1.1782     7.5897 H       
 234 H234          -2.8039    -1.3078     4.5756 H       
 235 H235          -3.6803    -0.3826     5.8407 H       
 236 H236          -1.8783     1.1927     6.1040 H       
 237 H237          -1.8241     0.8891     4.3405 H       
 238 H238          -0.3774    -3.9446     6.8981 H       
 239 H239           0.1831    -4.8085     4.1655 H       
 240 H240           2.3154    -5.8767     4.7182 H       
 241 H241           2.4214    -4.1391     5.0896 H       
 242 H242           3.2160    -5.4853     6.8957 H       
 243 H243           0.6353    -7.4354     4.3633 H       
 244 H244          -0.6050    -8.5336     6.7786 H       
 245 H245          -2.1733    -9.9283     5.2987 H       
 246 H246          -2.5955    -8.2086     5.4784 H       
 247 H247          -1.2538    -7.7973     3.3299 H       
 248 H248          -1.4124   -10.8390     3.3315 H       
 249 H249          -1.1128    -9.8816     1.8611 H       
 250 H250           0.0458    -9.8253     3.2112 H       
 251 H251          -3.7321    -7.8397     3.3974 H       
 252 H252          -3.1221    -8.5486     1.8830 H       
 253 H253          -3.7075    -9.6072     3.1887 H       
 254 H254           2.1316   -11.9704     6.0375 H       
 255 H255           0.5248   -14.2334     6.2491 H       
 256 H256           1.1295   -13.3154     7.6672 H       
 257 H257          -1.5860   -13.0694     6.2539 H       
 258 H258          -1.2479   -13.1558     8.0154 H       
 259 H259          -0.3244   -10.9327     8.0671 H       
 260 H260          -1.6480   -10.7352     6.8779 H       
 261 H261           2.4875   -13.9125     4.4275 H       
 262 H262           0.9982   -13.2325     1.9468 H       
 263 H263           3.8851   -14.1386     2.3375 H       
 264 H264           3.0953   -13.9436     0.7544 H       
 265 H265           2.7544   -11.4789    -0.1261 H       
 266 H266           3.5371    -9.1910     0.6744 H       
 267 H267           4.7274    -8.0560     3.0310 H       
 268 H268           5.5094    -8.7115     5.2631 H       
 269 H269           5.3483   -11.0487     6.0071 H       
 270 H270           4.4073   -12.7563     4.5330 H       
 271 H271           1.4189   -15.3031     0.2739 H       
 272 H272           1.3635   -17.8329     1.7315 H       
 273 H273          -1.0660   -16.7420     0.2458 H       
 274 H274          -0.8799   -18.4419     0.7397 H       
 275 H275          -1.3713   -14.9937     1.8997 H       
 276 H276          -2.1729   -14.4216     4.1556 H       
 277 H277          -3.4023   -16.1869     6.2443 H       
 278 H278          -1.7268   -18.5033     5.3412 H       
 279 H279          -0.9352   -19.0691     3.0802 H       
 280 H280           3.2537   -19.3394    -1.9115 H       
 281 H281           2.0289   -21.7870    -2.4187 H       
 282 H282           3.2582   -21.5451    -1.1343 H       
 283 H283           0.1982   -21.5001    -0.8769 H       
 284 H284           1.3950   -22.3274     0.1756 H       
 285 H285           2.1700   -20.2545     1.1243 H       
 286 H286           0.4199   -19.9244     0.9423 H       
 287 H287           2.5605   -20.4301    -4.2693 H       
 288 H288           0.8796   -18.5250    -5.5030 H       
 289 H289          -0.0697   -20.0008    -5.2044 H       
 290 H290           0.1836   -19.5421    -7.8747 H       
 291 H291           1.9334   -21.7716    -8.6134 H       
 292 H292          -0.1310   -20.1610   -10.1783 H       
 293 H293           0.7882   -21.5322   -10.8440 H       
 294 H294          -1.7564   -22.2284   -10.9815 H       
 295 H295          -2.2877   -23.1328    -9.6690 H       
 296 H296           2.9756   -21.3130   -11.0560 H       
 297 H297           3.9632   -18.5722   -11.2567 H       
 298 H298           5.8028   -20.9247   -10.6318 H       
 299 H299           6.3598   -19.3203   -11.1647 H       
 300 H300           5.2659   -18.2861    -9.1944 H       
 301 H301           4.7089   -19.8905    -8.6615 H       
 302 H302           7.0628   -20.6513    -8.4917 H       
 303 H303           7.6198   -19.0469    -9.0246 H       
 304 H304           5.9350   -18.7051    -6.7838 H       
 305 H305           8.5520   -18.8464    -4.4738 H       
 306 H306           9.0668   -20.0857    -7.6669 H       
 307 H307           9.7864   -19.8380    -6.1691 H       
 308 H308           5.8119   -18.6899   -13.2140 H       
 309 H309           5.1844   -20.8325   -15.0964 H       
 310 H310           4.3416   -19.3350   -16.8411 H       
 311 H311           3.3246   -19.1703   -15.3896 H       
 312 H312           4.5405   -17.9273   -15.7701 H       
 313 H313           9.3624   -19.9133   -16.4627 H       
 314 H314           9.1587   -20.3563   -19.2032 H       
 315 H315           9.3325   -21.6757   -17.9997 H       
 316 H316           6.7591   -20.5774   -19.2658 H       
 317 H317           7.2467   -22.2901   -19.0343 H       
 318 H318           6.9089   -22.1876   -16.6525 H       
 319 H319           5.5713   -21.1537   -17.2413 H       
 320 H320          10.4002   -18.4855   -18.4910 H       
 321 H321           8.5914   -16.3363   -19.2892 H       
 322 H322          10.0228   -14.5721   -18.2518 H       
 323 H323           8.9133   -16.6380   -16.2979 H       
 324 H324           9.2459   -14.9308   -15.9193 H       
 325 H325           7.9779   -15.3509   -17.0958 H       
 326 H326          12.1014   -15.9143   -18.0880 H       
 327 H327          11.6481   -15.2424   -16.5032 H       
 328 H328          11.3324   -16.9560   -16.8667 H       
 329 H329          10.0068   -14.6283   -20.6534 H       
 330 H330          12.3764   -15.8651   -21.8293 H       
 331 H331           9.7689   -15.5412   -23.3799 H       
 332 H332          11.3471   -15.8995   -24.1209 H       
 333 H333          11.5153   -17.9673   -22.7627 H       
 334 H334           9.9370   -17.6090   -22.0218 H       
 335 H335           9.1239   -19.8516   -24.8073 H       
 336 H336          12.8468   -14.3299   -24.0263 H       
 337 H337          12.9993   -11.6841   -22.7792 H       
 338 H338          14.2160   -12.8346   -25.3293 H       
 339 H339          14.5066   -11.1836   -24.7310 H       
 340 H340          16.8065   -12.7056   -24.9006 H       
 341 H341          17.2831   -13.2476   -23.3834 H       
 342 H342          12.7921    -9.7895   -24.6845 H       
 343 H343          10.5987   -10.4022   -26.5124 H       
 344 H344          10.2826    -8.4572   -24.1830 H       
 345 H345           9.1572    -8.5799   -25.5566 H       
 346 H346           8.7427   -10.9615   -25.0043 H       
 347 H347           9.8680   -10.8388   -23.6307 H       
 348 H348           7.4361   -11.5674   -22.7264 H       
 349 H349           6.5563   -10.2703   -22.1214 H       
 350 H350           9.9295    -8.0065   -27.5496 H       
 351 H351          12.2339    -6.2130   -27.5710 H       
 352 H352          11.3848    -7.8032   -30.0326 H       
 353 H353          12.4956    -6.4127   -30.0618 H       
 354 H354          14.0256    -7.6026   -28.5151 H       
 355 H355          12.9147    -8.9930   -28.4860 H       
 356 H356          15.3485    -9.8528   -31.0912 H       
 357 H357          11.6577    -4.4386   -29.5158 H       
 358 H358           8.7682    -4.1387   -29.8137 H       
 359 H359          10.4481    -2.1872   -28.1771 H       
 360 H360           8.7901    -1.8673   -28.7401 H       
 361 H361           7.9855    -3.8597   -27.5025 H       
 362 H362           9.6435    -4.1795   -26.9394 H       
 363 H363           9.6847    -1.9736   -25.8077 H       
 364 H364           8.0267    -1.6538   -26.3707 H       
 365 H365           8.0354    -4.1113   -24.9789 H       
 366 H366           7.2682    -2.6600   -21.8951 H       
 367 H367           8.5154    -0.6530   -24.4275 H       
 368 H368           7.9737    -0.6611   -22.8372 H       
 369 H369           8.4797    -1.7005   -30.9248 H       
 370 H370          10.8313    -1.0061   -32.5108 H       
 371 H371           8.3021    -2.1604   -33.7676 H       
 372 H372           9.5997    -1.3462   -34.6740 H       
 373 H373           8.6730    -4.3322   -32.7474 H       
 374 H374           9.9478    -6.4378   -32.8139 H       
 375 H375          12.1395    -6.5153   -33.9336 H       
 376 H376          13.0560    -4.4874   -34.9875 H       
 377 H377          11.7774    -2.3838   -34.9283 H       
 378 H378           9.9641     0.8399   -34.2383 H       
 379 H379           8.3178     2.6570   -32.6373 H       
 380 H380           9.7203     2.9695   -35.3281 H       
 381 H381           8.8017     4.2615   -34.5187 H       
 382 H382          11.2816     5.1523   -34.7436 H       
 383 H383          12.2272     4.8822   -33.3814 H       
 384 H384           6.6584     4.0031   -34.3224 H       
 385 H385           4.7280     1.9056   -34.9244 H       
 386 H386           4.5858     4.9477   -35.1044 H       
 387 H387           3.2170     3.8547   -35.4206 H       
 388 H388           2.7581     5.5929   -33.3252 H       
 389 H389           2.9311     4.8145   -31.8464 H       
 390 H390           3.3775     2.4345   -37.1688 H       
 391 H391           5.2604     3.3675   -39.2390 H       
 392 H392           4.5728     1.4050   -40.6819 H       
 393 H393           3.6823    -0.5951   -39.4365 H       
 394 H394           3.4377     0.4498   -38.0165 H       
 395 H395           1.3950     0.1108   -39.5429 H       
 396 H396           1.8221     1.7967   -39.1641 H       
 397 H397           2.2577     1.1017   -40.7438 H       
 398 H398           5.9929     0.7825   -38.0532 H       
 399 H399           6.0758    -0.2168   -39.5238 H       
 400 H400           6.7493     1.4308   -39.5283 H       
 401 H401           3.8269     3.3471   -41.5015 H       
 402 H402           0.9752     3.6739   -40.9638 H       
 403 H403           2.7240     5.9777   -41.9350 H       
 404 H404           0.9444     5.9752   -41.9713 H       
 405 H405           3.5277     7.3349   -39.8881 H       
 406 H406           2.7131     7.5327   -37.4379 H       
 407 H407           0.6112     6.1307   -37.0423 H       
 408 H408          -0.0366     4.5162   -43.3153 H       
 409 H409           1.5747     3.5306   -45.5424 H       
 410 H410          -0.9882     2.1393   -44.6454 H       
 411 H411          -0.1802     1.8598   -46.2065 H       
 412 H412           1.1380     1.4788   -43.4814 H       
 413 H413           0.0355    -0.5650   -45.4624 H       
 414 H414           0.9311    -0.9432   -43.9713 H       
 415 H415          -0.6701    -0.1715   -43.8764 H       
 416 H416           1.9971     0.7280   -46.3126 H       
 417 H417           2.6889     2.0428   -45.3322 H       
 418 H418           2.8926     0.3499   -44.8215 H       
 419 H419          -0.1258     3.5508   -47.6330 H       
 420 H420          -2.1724     5.6030   -47.2766 H       
 421 H421           0.3216     6.0672   -48.9716 H       
 422 H422          -1.1397     7.0820   -49.0254 H       
 423 H423          -0.8806     7.5830   -46.6107 H       
 424 H424           0.5807     6.5682   -46.5570 H       
 425 H425           1.2113     9.0773   -45.8023 H       
 426 H426           1.8830     9.9782   -47.0512 H       
 427 H427          -2.9941     6.1434   -49.7857 H       
 428 H428          -3.5721     3.4889   -50.8565 H       
 429 H429          -4.4747     6.2824   -51.6874 H       
 430 H430          -5.0501     4.7716   -52.4320 H       
 431 H431          -6.2435     7.1231   -50.0014 H       
 432 H432          -7.7663     5.9481   -48.2674 H       
 433 H433          -7.4765     3.4086   -48.3473 H       
 434 H434          -2.0523     4.0685   -54.1435 H       
@<TRIPOS>BOND
   1    1    2 2
   2    1    4 1
   3    1    7 am
   4    3    4 1
   5    3  227 1
   6    3  228 1
   7    4  229 1
   8    4  230 1
   9    5    6 2
  10    5   14 am
  11    5    8 1
  12    7    8 1
  13    7   11 1
  14    8    9 1
  15    8  231 1
  16    9   10 1
  17    9  232 1
  18    9  233 1
  19   10   11 1
  20   10  234 1
  21   10  235 1
  22   11  236 1
  23   11  237 1
  24   12   13 2
  25   12   15 1
  26   12   20 am
  27   14   15 1
  28   14  238 1
  29   15   16 1
  30   15  239 1
  31   16   17 1
  32   16  240 1
  33   16  241 1
  34   17  242 1
  35   18   19 2
  36   18   21 1
  37   18   28 am
  38   20   21 1
  39   20  243 1
  40   21   22 1
  41   21  244 1
  42   22   23 1
  43   22  245 1
  44   22  246 1
  45   23   24 1
  46   23   25 1
  47   23  247 1
  48   24  248 1
  49   24  249 1
  50   24  250 1
  51   25  251 1
  52   25  252 1
  53   25  253 1
  54   26   27 2
  55   26   35 am
  56   26   29 1
  57   28   29 1
  58   28   32 1
  59   29   30 1
  60   29  254 1
  61   30   31 1
  62   30  255 1
  63   30  256 1
  64   31   32 1
  65   31  257 1
  66   31  258 1
  67   32  259 1
  68   32  260 1
  69   33   34 2
  70   33   36 1
  71   33   49 am
  72   35   36 1
  73   35  261 1
  74   36   37 1
  75   36  262 1
  76   37   38 1
  77   37  263 1
  78   37  264 1
  79   38   39 2
  80   38   46 1
  81   39   40 1
  82   39  265 1
  83   40   41 1
  84   40  266 1
  85   41   42 ar
  86   41   46 ar
  87   42   43 ar
  88   42  267 1
  89   43   44 ar
  90   43  268 1
  91   44   45 ar
  92   44  269 1
  93   45   46 ar
  94   45  270 1
  95   47   48 2
  96   47   50 1
  97   47   61 am
  98   49   50 1
  99   49  271 1
 100   50   51 1
 101   50  272 1
 102   51   52 1
 103   51  273 1
 104   51  274 1
 105   52   53 ar
 106   52   58 ar
 107   53   54 ar
 108   53  275 1
 109   54   55 ar
 110   54  276 1
 111   55   56 1
 112   55   57 ar
 113   56  277 1
 114   57   58 ar
 115   57  278 1
 116   58  279 1
 117   59   60 2
 118   59   68 am
 119   59   62 1
 120   61   62 1
 121   61   65 1
 122   62   63 1
 123   62  280 1
 124   63   64 1
 125   63  281 1
 126   63  282 1
 127   64   65 1
 128   64  283 1
 129   64  284 1
 130   65  285 1
 131   65  286 1
 132   66   67 2
 133   66   69 1
 134   66   72 am
 135   68   69 1
 136   68  287 1
 137   69  288 1
 138   69  289 1
 139   70   71 2
 140   70   73 1
 141   70   80 am
 142   72   73 1
 143   72  290 1
 144   73   74 1
 145   73  291 1
 146   74   75 1
 147   74  292 1
 148   74  293 1
 149   75   76 2
 150   75   77 am
 151   77  294 1
 152   77  295 1
 153   78   79 2
 154   78   81 1
 155   78   91 am
 156   80   81 1
 157   80  296 1
 158   81   82 1
 159   81  297 1
 160   82   83 1
 161   82  298 1
 162   82  299 1
 163   83   84 1
 164   83  300 1
 165   83  301 1
 166   84   85 1
 167   84  302 1
 168   84  303 1
 169   85   86 1
 170   85  304 1
 171   86   87 2
 172   86   88 1
 173   87  305 1
 174   88  306 1
 175   88  307 1
 176   89   90 2
 177   89   92 1
 178   89   96 am
 179   91   92 1
 180   91  308 1
 181   92   93 1
 182   92  309 1
 183   93  310 1
 184   93  311 1
 185   93  312 1
 186   94   95 2
 187   94  103 am
 188   94   97 1
 189   96   97 1
 190   96  100 1
 191   97   98 1
 192   97  313 1
 193   98   99 1
 194   98  314 1
 195   98  315 1
 196   99  100 1
 197   99  316 1
 198   99  317 1
 199  100  318 1
 200  100  319 1
 201  101  102 2
 202  101  104 1
 203  101  110 am
 204  103  104 1
 205  103  320 1
 206  104  105 1
 207  104  321 1
 208  105  106 1
 209  105  107 1
 210  105  322 1
 211  106  323 1
 212  106  324 1
 213  106  325 1
 214  107  326 1
 215  107  327 1
 216  107  328 1
 217  108  109 2
 218  108  111 1
 219  108  119 am
 220  110  111 1
 221  110  329 1
 222  111  112 1
 223  111  330 1
 224  112  113 1
 225  112  331 1
 226  112  332 1
 227  113  114 1
 228  113  333 1
 229  113  334 1
 230  114  115 2
 231  114  116 1
 232  116  335 1
 233  117  118 2
 234  117  120 1
 235  117  127 am
 236  119  120 1
 237  119  336 1
 238  120  121 1
 239  120  337 1
 240  121  122 1
 241  121  338 1
 242  121  339 1
 243  122  123 2
 244  122  124 am
 245  124  340 1
 246  124  341 1
 247  125  126 2
 248  125  128 1
 249  125  136 am
 250  127  128 1
 251  127  342 1
 252  128  129 1
 253  128  343 1
 254  129  130 1
 255  129  344 1
 256  129  345 1
 257  130  131 1
 258  130  346 1
 259  130  347 1
 260  131  132 2
 261  131  133 am
 262  133  348 1
 263  133  349 1
 264  134  135 2
 265  134  137 1
 266  134  145 am
 267  136  137 1
 268  136  350 1
 269  137  138 1
 270  137  351 1
 271  138  139 1
 272  138  352 1
 273  138  353 1
 274  139  140 1
 275  139  354 1
 276  139  355 1
 277  140  141 2
 278  140  142 1
 279  142  356 1
 280  143  144 2
 281  143  146 1
 282  143  156 am
 283  145  146 1
 284  145  357 1
 285  146  147 1
 286  146  358 1
 287  147  148 1
 288  147  359 1
 289  147  360 1
 290  148  149 1
 291  148  361 1
 292  148  362 1
 293  149  150 1
 294  149  363 1
 295  149  364 1
 296  150  151 1
 297  150  365 1
 298  151  152 2
 299  151  153 1
 300  152  366 1
 301  153  367 1
 302  153  368 1
 303  154  155 2
 304  154  157 1
 305  154  167 am
 306  156  157 1
 307  156  369 1
 308  157  158 1
 309  157  370 1
 310  158  159 1
 311  158  371 1
 312  158  372 1
 313  159  160 ar
 314  159  164 ar
 315  160  161 ar
 316  160  373 1
 317  161  162 ar
 318  161  374 1
 319  162  163 ar
 320  162  375 1
 321  163  164 ar
 322  163  376 1
 323  164  377 1
 324  165  166 2
 325  165  168 1
 326  165  175 am
 327  167  168 1
 328  167  378 1
 329  168  169 1
 330  168  379 1
 331  169  170 1
 332  169  380 1
 333  169  381 1
 334  170  171 2
 335  170  172 am
 336  172  382 1
 337  172  383 1
 338  173  174 2
 339  173  176 1
 340  173  183 am
 341  175  176 1
 342  175  384 1
 343  176  177 1
 344  176  385 1
 345  177  178 1
 346  177  386 1
 347  177  387 1
 348  178  179 2
 349  178  180 am
 350  180  388 1
 351  180  389 1
 352  181  182 2
 353  181  184 1
 354  181  191 am
 355  183  184 1
 356  183  390 1
 357  184  185 1
 358  184  391 1
 359  185  186 1
 360  185  188 1
 361  185  392 1
 362  186  187 1
 363  186  393 1
 364  186  394 1
 365  187  395 1
 366  187  396 1
 367  187  397 1
 368  188  398 1
 369  188  399 1
 370  188  400 1
 371  189  190 2
 372  189  192 1
 373  189  201 am
 374  191  192 1
 375  191  401 1
 376  192  193 1
 377  192  402 1
 378  193  194 1
 379  193  403 1
 380  193  404 1
 381  194  195 2
 382  194  198 1
 383  195  196 1
 384  195  405 1
 385  196  197 1
 386  196  406 1
 387  197  198 2
 388  197  407 1
 389  199  200 2
 390  199  202 1
 391  199  209 am
 392  201  202 1
 393  201  408 1
 394  202  203 1
 395  202  409 1
 396  203  204 1
 397  203  410 1
 398  203  411 1
 399  204  205 1
 400  204  206 1
 401  204  412 1
 402  205  413 1
 403  205  414 1
 404  205  415 1
 405  206  416 1
 406  206  417 1
 407  206  418 1
 408  207  208 2
 409  207  210 1
 410  207  218 am
 411  209  210 1
 412  209  419 1
 413  210  211 1
 414  210  420 1
 415  211  212 1
 416  211  421 1
 417  211  422 1
 418  212  213 1
 419  212  423 1
 420  212  424 1
 421  213  214 2
 422  213  215 am
 423  215  425 1
 424  215  426 1
 425  216  217 2
 426  216  219 1
 427  216  226 1
 428  218  219 1
 429  218  427 1
 430  219  220 1
 431  219  428 1
 432  220  221 1
 433  220  429 1
 434  220  430 1
 435  221  222 2
 436  221  225 1
 437  222  223 1
 438  222  431 1
 439  223  224 1
 440  223  432 1
 441  224  225 2
 442  224  433 1
 443  226  434 1

#	End of record

