#	Name: ASD08150463
#	Creating user name:	WinNT
#	Creation time:	15. 06. 2019 21:16

#	Modifying user name:	WinNT
#	Modification time:	15. 06. 2019 21:16

#	Program:	/corina/corina34_cracker 3.40 0067  02.08.2006

@<TRIPOS>MOLECULE
ASD08150463
  70   76    0    0    0
SMALL
NO_CHARGES


@<TRIPOS>ATOM
   1 N1             0.6956     1.4582     0.7277 N.am    
   2 C2             0.6646     0.1125     0.6723 C.2     
   3 C3             1.8463    -0.6446     0.8047 C.2     
   4 C4             3.0386    -0.0230     0.9909 C.2     
   5 C5             3.0749     1.3926     1.0492 C.ar    
   6 C6             4.2848     2.0869     1.2402 C.ar    
   7 N7             4.3153     3.3929     1.2936 N.ar    
   8 C8             3.2091     4.1422     1.1708 C.ar    
   9 C9             1.9475     3.5282     0.9753 C.ar    
  10 C10            1.8800     2.1164     0.9139 C.ar    
  11 C11            0.8006     4.3180     0.8495 C.ar    
  12 C12            0.9114     5.6975     0.9176 C.ar    
  13 C13            2.1634     6.2979     1.1108 C.ar    
  14 C14            3.2879     5.5431     1.2348 C.ar    
  15 O15           -0.3999    -0.4582     0.5058 O.2     
  16 C16           -0.3000     6.5427     0.7852 C.ar    
  17 C17           -0.4921     2.1882     0.5880 C.ar    
  18 C18           -0.9080     2.6036    -0.6706 C.ar    
  19 C19           -2.0778     3.3227    -0.8084 C.ar    
  20 C20           -2.8396     3.6312     0.3118 C.ar    
  21 C21           -2.4236     3.2158     1.5703 C.ar    
  22 C22           -1.2563     2.4916     1.7071 C.ar    
  23 N23           -4.0244     4.3600     0.1725 N.3     
  24 C24           -5.1911     3.4679     0.1449 C.3     
  25 C25           -3.9791     5.2151    -1.0211 C.3     
  26 C26           -5.2111     6.1263    -1.0397 C.3     
  27 N27           -6.4138     5.2882    -0.9202 N.am    
  28 C28           -6.4727     4.3074     0.1742 C.3     
  29 C29           -7.4352     5.4160    -1.7903 C.2     
  30 O30           -8.4547     4.7799    -1.6264 O.2     
  31 C31           -7.3103     6.3492    -2.9670 C.3     
  32 C32           -1.5212     5.9718     0.3926 C.ar    
  33 N33           -2.6061     6.6932     0.2679 N.ar    
  34 C34           -2.6060     8.0088     0.5078 C.ar    
  35 C35           -1.4117     8.6591     0.9086 C.ar    
  36 C36           -0.2362     7.9024     1.0538 C.ar    
  37 C37           -3.7814     8.7672     0.3680 C.ar    
  38 C38           -3.7570    10.1049     0.6172 C.ar    
  39 C39           -2.5818    10.7422     1.0107 C.ar    
  40 C40           -1.4235    10.0422     1.1571 C.ar    
  41 C41           -3.2495     3.5506     2.7855 C.3     
  42 F42           -2.5648     3.1526     3.9388 F       
  43 F43           -3.4753     4.9306     2.8301 F       
  44 F44           -4.4750     2.8796     2.7159 F       
  45 H45            1.8028    -1.7227     0.7581 H       
  46 H46            3.9464    -0.5989     1.0936 H       
  47 H47            5.2045     1.5304     1.3448 H       
  48 H48           -0.1642     3.8563     0.7000 H       
  49 H49            2.2360     7.3743     1.1617 H       
  50 H50            4.2442     6.0223     1.3835 H       
  51 H51           -0.3156     2.3642    -1.5414 H       
  52 H52           -2.4009     3.6460    -1.7870 H       
  53 H53           -0.9351     2.1647     2.6851 H       
  54 H54           -5.1694     2.8688    -0.7654 H       
  55 H55           -5.1669     2.8105     1.0141 H       
  56 H56           -3.0760     5.8250    -0.9976 H       
  57 H57           -3.9744     4.5917    -1.9152 H       
  58 H58           -5.1647     6.8218    -0.2017 H       
  59 H59           -5.2426     6.6804    -1.9778 H       
  60 H60           -7.3383     3.6590     0.0386 H       
  61 H61           -6.5476     4.8281     1.1288 H       
  62 H62           -6.8066     5.8359    -3.7861 H       
  63 H63           -8.3034     6.6615    -3.2900 H       
  64 H64           -6.7306     7.2252    -2.6760 H       
  65 H65           -1.5663     4.9122     0.1884 H       
  66 H66            0.6904     8.3667     1.3574 H       
  67 H67           -4.7010     8.2897     0.0632 H       
  68 H68           -4.6632    10.6821     0.5080 H       
  69 H69           -2.5900    11.8052     1.2015 H       
  70 H70           -0.5189    10.5468     1.4628 H       
@<TRIPOS>BOND
   1    1    2 am
   2    1   10 1
   3    1   17 1
   4    2    3 1
   5    2   15 2
   6    3    4 2
   7    3   45 1
   8    4    5 1
   9    4   46 1
  10    5    6 ar
  11    5   10 ar
  12    6    7 ar
  13    6   47 1
  14    7    8 ar
  15    8    9 ar
  16    8   14 ar
  17    9   10 ar
  18    9   11 ar
  19   11   12 ar
  20   11   48 1
  21   12   13 ar
  22   12   16 1
  23   13   14 ar
  24   13   49 1
  25   14   50 1
  26   16   32 ar
  27   16   36 ar
  28   17   18 ar
  29   17   22 ar
  30   18   19 ar
  31   18   51 1
  32   19   20 ar
  33   19   52 1
  34   20   21 ar
  35   20   23 1
  36   21   22 ar
  37   21   41 1
  38   22   53 1
  39   23   24 1
  40   23   25 1
  41   24   28 1
  42   24   54 1
  43   24   55 1
  44   25   26 1
  45   25   56 1
  46   25   57 1
  47   26   27 1
  48   26   58 1
  49   26   59 1
  50   27   28 1
  51   27   29 am
  52   28   60 1
  53   28   61 1
  54   29   30 2
  55   29   31 1
  56   31   62 1
  57   31   63 1
  58   31   64 1
  59   32   33 ar
  60   32   65 1
  61   33   34 ar
  62   34   35 ar
  63   34   37 ar
  64   35   36 ar
  65   35   40 ar
  66   36   66 1
  67   37   38 ar
  68   37   67 1
  69   38   39 ar
  70   38   68 1
  71   39   40 ar
  72   39   69 1
  73   40   70 1
  74   41   42 1
  75   41   43 1
  76   41   44 1

#	End of record

