#	Name: ASD01913199
#	Creating user name:	WinNT
#	Creation time:	15. 06. 2019 20:01

#	Modifying user name:	WinNT
#	Modification time:	15. 06. 2019 20:01

#	Program:	/corina/corina34_cracker 3.40 0067  02.08.2006

@<TRIPOS>MOLECULE
ASD01913199
  45   48    0    0    0
SMALL
NO_CHARGES


@<TRIPOS>ATOM
   1 C1            -0.0894     1.4762    -0.2765 C.3     
   2 N2            -0.0402     0.0111    -0.2447 N.am    
   3 C3             1.3433    -0.3747    -0.5405 C.3     
   4 C4             2.1362     0.8900    -0.7532 C.ar    
   5 C5             3.4747     1.0890    -1.0560 C.ar    
   6 C6             3.9685     2.3733    -1.2025 C.ar    
   7 C7             3.1260     3.4580    -1.0471 C.ar    
   8 C8             1.7925     3.2591    -0.7459 C.ar    
   9 C9             1.2967     1.9747    -0.5985 C.ar    
  10 C10           -1.0694    -0.8217     0.0079 C.2     
  11 C11           -0.8847    -2.2814    -0.1132 C.ar    
  12 C12           -1.9819    -3.1345    -0.0027 C.ar    
  13 C13           -1.8014    -4.5111    -0.1182 C.ar    
  14 C14           -0.5155    -5.0288    -0.3452 C.ar    
  15 C15            0.5690    -4.1703    -0.4530 C.ar    
  16 C16            0.3900    -2.8083    -0.3445 C.ar    
  17 O17           -2.1499    -0.3707     0.3354 O.2     
  18 C18           -2.9225    -5.3949    -0.0056 C.1     
  19 C19           -3.8416    -6.1194     0.0867 C.1     
  20 C20           -4.9627    -7.0032     0.1994 C.ar    
  21 C21           -4.7731    -8.3830     0.0822 C.ar    
  22 C22           -5.8661    -9.2225     0.1934 C.ar    
  23 C23           -7.1155    -8.6592     0.4183 C.ar    
  24 C24           -7.2326    -7.2855     0.5241 C.ar    
  25 N25           -6.1760    -6.5058     0.4201 N.ar    
  26 O26           -0.3340    -6.3680    -0.4586 O.3     
  27 C27            1.0003    -6.8247    -0.6889 C.3     
  28 F28            4.2974     0.0282    -1.2077 F       
  29 H29           -0.7884     1.8058    -1.0451 H       
  30 H30           -0.4021     1.8565     0.6960 H       
  31 H31            1.7582    -0.9342     0.2979 H       
  32 H32            1.3718    -0.9848    -1.4432 H       
  33 H33            5.0111     2.5280    -1.4376 H       
  34 H34            3.5103     4.4609    -1.1609 H       
  35 H35            1.1352     4.1074    -0.6248 H       
  36 H36           -2.9678    -2.7298     0.1722 H       
  37 H37            1.5568    -4.5708    -0.6272 H       
  38 H38            1.2378    -2.1454    -0.4342 H       
  39 H39           -3.7872    -8.7876    -0.0931 H       
  40 H40           -5.7509   -10.2928     0.1070 H       
  41 H41           -7.9882    -9.2887     0.5093 H       
  42 H42           -8.2034    -6.8459     0.6990 H       
  43 H43            1.3745    -6.3986    -1.6198 H       
  44 H44            1.6392    -6.5114     0.1368 H       
  45 H45            1.0049    -7.9124    -0.7595 H       
@<TRIPOS>BOND
   1    1    2 1
   2    1    9 1
   3    1   29 1
   4    1   30 1
   5    2    3 1
   6    2   10 am
   7    3    4 1
   8    3   31 1
   9    3   32 1
  10    4    5 ar
  11    4    9 ar
  12    5    6 ar
  13    5   28 1
  14    6    7 ar
  15    6   33 1
  16    7    8 ar
  17    7   34 1
  18    8    9 ar
  19    8   35 1
  20   10   11 1
  21   10   17 2
  22   11   12 ar
  23   11   16 ar
  24   12   13 ar
  25   12   36 1
  26   13   14 ar
  27   13   18 1
  28   14   15 ar
  29   14   26 1
  30   15   16 ar
  31   15   37 1
  32   16   38 1
  33   18   19 3
  34   19   20 1
  35   20   21 ar
  36   20   25 ar
  37   21   22 ar
  38   21   39 1
  39   22   23 ar
  40   22   40 1
  41   23   24 ar
  42   23   41 1
  43   24   25 ar
  44   24   42 1
  45   26   27 1
  46   27   43 1
  47   27   44 1
  48   27   45 1

#	End of record

