#	Name: ASD01150131
#	Creating user name:	WinNT
#	Creation time:	15. 06. 2019 19:03

#	Modifying user name:	WinNT
#	Modification time:	15. 06. 2019 19:03

#	Program:	/corina/corina34_cracker 3.40 0067  02.08.2006

@<TRIPOS>MOLECULE
ASD01150131
  59   63    0    0    0
SMALL
NO_CHARGES


@<TRIPOS>ATOM
   1 N1             0.4922     1.0361     0.3480 N.pl3   
   2 C2             0.3564    -0.3354     0.2681 C.2     
   3 C3            -1.0085    -0.5884     0.2126 C.2     
   4 N4            -1.6319     0.5917     0.2589 N.2     
   5 C5            -0.7509     1.5556     0.3448 C.2     
   6 C6             1.2588    -1.4204     0.2360 C.2     
   7 N7             0.7752    -2.6773     0.1523 N.am    
   8 C8            -0.5480    -2.9076     0.0989 C.2     
   9 N9            -1.4423    -1.9015     0.1273 N.am    
  10 O10            2.4600    -1.2243     0.2830 O.2     
  11 C11           -2.8762    -2.1955     0.0670 C.3     
  12 O12           -0.9475    -4.0536     0.0234 O.2     
  13 C13            1.7063    -3.8078     0.1186 C.3     
  14 C14            1.9823    -4.2734     1.5251 C.ar    
  15 C15            1.1852    -5.2454     2.1001 C.ar    
  16 C16            1.4378    -5.6728     3.3900 C.ar    
  17 C17            2.4888    -5.1275     4.1057 C.ar    
  18 C18            3.2863    -4.1547     3.5297 C.ar    
  19 C19            3.0361    -3.7322     2.2377 C.ar    
  20 Cl20           2.8065    -5.6634     5.7261 Cl      
  21 C21           -1.0772     3.0250     0.4184 C.3     
  22 C22           -1.2377     3.4391     1.8826 C.3     
  23 C23            1.7492     1.7842     0.4275 C.3     
  24 C24           -3.4114    -2.3751     1.4643 C.2     
  25 C25           -3.9407    -1.4360     2.2808 C.2     
  26 O26           -4.2771    -2.0607     3.4183 O.3     
  27 N27           -4.0158    -3.2405     3.3778 N.2     
  28 C28           -3.4828    -3.5732     2.2284 C.2     
  29 C29           -4.1175     0.0284     1.9722 C.3     
  30 C30           -3.0338    -4.9252     1.8114 C.ar    
  31 C31           -2.3310    -5.7340     2.7019 C.ar    
  32 C32           -1.9163    -6.9905     2.3092 C.ar    
  33 C33           -2.1968    -7.4469     1.0339 C.ar    
  34 C34           -2.8938    -6.6479     0.1457 C.ar    
  35 C35           -3.3187    -5.3922     0.5301 C.ar    
  36 H36           -3.3964    -1.3695    -0.4180 H       
  37 H37           -3.0358    -3.1105    -0.5036 H       
  38 H38            1.2662    -4.6240    -0.4545 H       
  39 H39            2.6394    -3.4962    -0.3507 H       
  40 H40            0.3645    -5.6708     1.5414 H       
  41 H41            0.8148    -6.4320     3.8393 H       
  42 H42            4.1069    -3.7287     4.0879 H       
  43 H43            3.6585    -2.9728     1.7879 H       
  44 H44           -0.2697     3.5997    -0.0352 H       
  45 H45           -2.0063     3.2182    -0.1177 H       
  46 H46           -1.4736     4.5019     1.9359 H       
  47 H47           -2.0452     2.8644     2.3363 H       
  48 H48           -0.3085     3.2459     2.4187 H       
  49 H49            2.0922     2.0264    -0.5784 H       
  50 H50            1.5891     2.7051     0.9884 H       
  51 H51            2.5017     1.1779     0.9318 H       
  52 H52           -5.0940     0.1880     1.5150 H       
  53 H53           -4.0497     0.6049     2.8948 H       
  54 H54           -3.3367     0.3515     1.2837 H       
  55 H55           -2.1108    -5.3783     3.6976 H       
  56 H56           -1.3714    -7.6183     2.9987 H       
  57 H57           -1.8702    -8.4306     0.7305 H       
  58 H58           -3.1099    -7.0090    -0.8490 H       
  59 H59           -3.8628    -4.7691    -0.1642 H       
@<TRIPOS>BOND
   1    1    2 1
   2    1   23 1
   3    1    5 1
   4    2    3 2
   5    2    6 1
   6    3    4 1
   7    3    9 1
   8    4    5 2
   9    5   21 1
  10    6    7 am
  11    6   10 2
  12    7    8 am
  13    7   13 1
  14    8    9 am
  15    8   12 2
  16    9   11 1
  17   11   24 1
  18   11   36 1
  19   11   37 1
  20   13   14 1
  21   13   38 1
  22   13   39 1
  23   14   15 ar
  24   14   19 ar
  25   15   16 ar
  26   15   40 1
  27   16   17 ar
  28   16   41 1
  29   17   18 ar
  30   17   20 1
  31   18   19 ar
  32   18   42 1
  33   19   43 1
  34   21   22 1
  35   21   44 1
  36   21   45 1
  37   22   46 1
  38   22   47 1
  39   22   48 1
  40   23   49 1
  41   23   50 1
  42   23   51 1
  43   24   25 2
  44   24   28 1
  45   25   26 1
  46   25   29 1
  47   26   27 1
  48   27   28 2
  49   28   30 1
  50   29   52 1
  51   29   53 1
  52   29   54 1
  53   30   31 ar
  54   30   35 ar
  55   31   32 ar
  56   31   55 1
  57   32   33 ar
  58   32   56 1
  59   33   34 ar
  60   33   57 1
  61   34   35 ar
  62   34   58 1
  63   35   59 1

#	End of record

