#	Name: ASD01880826
#	Creating user name:	WinNT
#	Creation time:	15. 06. 2019 19:41

#	Modifying user name:	WinNT
#	Modification time:	15. 06. 2019 19:41

#	Program:	/corina/corina34_cracker 3.40 0067  02.08.2006

@<TRIPOS>MOLECULE
ASD01880826
  59   61    0    0    0
SMALL
NO_CHARGES


@<TRIPOS>ATOM
   1 N1            -0.0158     1.3137     0.0093 N.ar    
   2 C2             0.0021    -0.0041     0.0020 C.ar    
   3 N3             1.1320    -0.6824    -0.0120 N.ar    
   4 C4             2.2982    -0.0569    -0.0197 C.ar    
   5 C5             2.3199     1.3289    -0.0130 C.ar    
   6 C6             1.1113     2.0071     0.0022 C.ar    
   7 C7             3.6263     2.0802    -0.0209 C.3     
   8 O8             4.0271     2.3244    -1.3706 O.3     
   9 C9             5.1918     2.9960    -1.5555 C.ar    
  10 C10            5.6407     3.2673    -2.8444 C.ar    
  11 C11            6.8188     3.9471    -3.0300 C.ar    
  12 C12            7.5728     4.3700    -1.9303 C.ar    
  13 C13            7.1172     4.0953    -0.6379 C.ar    
  14 C14            5.9322     3.4172    -0.4574 C.ar    
  15 C15            7.5715     4.3926    -4.2590 C.3     
  16 N16            8.7744     5.0801    -3.7758 N.am    
  17 C17            8.7712     5.0647    -2.4319 C.2     
  18 O18            9.6344     5.5549    -1.7298 O.2     
  19 C19            7.5608     5.9923     0.8962 C.3     
  20 C20            7.9193     4.5443     0.5563 C.3     
  21 C21            4.0074    -1.0993    -1.4829 C.3     
  22 C22            3.5851    -0.8408    -0.0352 C.3     
  23 C23            1.0569     4.0310    -1.4296 C.3     
  24 C24            1.0811     3.5138     0.0101 C.3     
  25 C25            9.4498     7.1437    -4.9012 C.3     
  26 C26            9.8090     5.6834    -4.6195 C.3     
  27 C27           -1.7602    -1.0018    -1.4291 C.3     
  28 C28           -1.3043    -0.7553     0.0105 C.3     
  29 H29            3.5023     3.0302     0.4989 H       
  30 H30            4.3895     1.4872     0.4831 H       
  31 H31            5.0632     2.9431    -3.6975 H       
  32 H32            5.5805     3.2056     0.5416 H       
  33 H33            7.8504     3.5281    -4.8614 H       
  34 H34            6.9590     5.0771    -4.8459 H       
  35 H35            7.7886     6.6326     0.0440 H       
  36 H36            6.4976     6.0589     1.1268 H       
  37 H37            8.1410     6.3170     1.7600 H       
  38 H38            7.6915     3.9039     1.4085 H       
  39 H39            8.9825     4.4777     0.3257 H       
  40 H40            4.1554    -0.1478    -1.9937 H       
  41 H41            4.9383    -1.6663    -1.4941 H       
  42 H42            3.2294    -1.6680    -1.9923 H       
  43 H43            4.3631    -0.2722     0.4741 H       
  44 H44            3.4371    -1.7923     0.4755 H       
  45 H45            1.9489     3.6882    -1.9539 H       
  46 H46            0.1694     3.6524    -1.9367 H       
  47 H47            1.0351     5.1207    -1.4239 H       
  48 H48            0.1891     3.8566     0.5344 H       
  49 H49            1.9686     3.8923     0.5173 H       
  50 H50            9.3843     7.6898    -3.9601 H       
  51 H51           10.2196     7.5927    -5.5289 H       
  52 H52            8.4897     7.1891    -5.4152 H       
  53 H53           10.7691     5.6380    -4.1055 H       
  54 H54            9.8745     5.1374    -5.5606 H       
  55 H55           -1.0065    -1.5894    -1.9533 H       
  56 H56           -2.7050    -1.5452    -1.4230 H       
  57 H57           -1.8937    -0.0465    -1.9366 H       
  58 H58           -1.1707    -1.7107     0.5179 H       
  59 H59           -2.0580    -0.1677     0.5347 H       
@<TRIPOS>BOND
   1    1    2 ar
   2    1    6 ar
   3    2    3 ar
   4    2   28 1
   5    3    4 ar
   6    4    5 ar
   7    4   22 1
   8    5    6 ar
   9    5    7 1
  10    6   24 1
  11    7    8 1
  12    7   29 1
  13    7   30 1
  14    8    9 1
  15    9   10 ar
  16    9   14 ar
  17   10   11 ar
  18   10   31 1
  19   11   12 ar
  20   11   15 1
  21   12   13 ar
  22   12   17 1
  23   13   14 ar
  24   13   20 1
  25   14   32 1
  26   15   16 1
  27   15   33 1
  28   15   34 1
  29   16   17 am
  30   16   26 1
  31   17   18 2
  32   19   20 1
  33   19   35 1
  34   19   36 1
  35   19   37 1
  36   20   38 1
  37   20   39 1
  38   21   22 1
  39   21   40 1
  40   21   41 1
  41   21   42 1
  42   22   43 1
  43   22   44 1
  44   23   24 1
  45   23   45 1
  46   23   46 1
  47   23   47 1
  48   24   48 1
  49   24   49 1
  50   25   26 1
  51   25   50 1
  52   25   51 1
  53   25   52 1
  54   26   53 1
  55   26   54 1
  56   27   28 1
  57   27   55 1
  58   27   56 1
  59   27   57 1
  60   28   58 1
  61   28   59 1

#	End of record

