#	Name: ASD01410023
#	Creating user name:	WinNT
#	Creation time:	15. 06. 2019 19:16

#	Modifying user name:	WinNT
#	Modification time:	15. 06. 2019 19:16

#	Program:	/corina/corina34_cracker 3.40 0067  02.08.2006

@<TRIPOS>MOLECULE
ASD01410023
  33   34    0    0    0
SMALL
NO_CHARGES


@<TRIPOS>ATOM
   1 C1            -0.0269     1.4077    -0.0667 C.ar    
   2 C2            -0.0039     0.0234    -0.0688 C.ar    
   3 C3            -1.1882    -0.6877    -0.0480 C.ar    
   4 C4            -2.4005    -0.0142    -0.0250 C.ar    
   5 C5            -2.4220     1.3727    -0.0229 C.ar    
   6 C6            -1.2362     2.0813    -0.0384 C.ar    
   7 O7            -3.5666    -0.7128    -0.0050 O.3     
   8 C8            -4.7772     0.0462     0.0181 C.3     
   9 C9            -5.9573    -0.8909     0.0380 C.2     
  10 N10           -7.2106    -0.3958     0.0614 N.am    
  11 C11           -8.3011    -1.2567    -0.0334 C.ar    
  12 C12           -8.2237    -2.3964    -0.8219 C.ar    
  13 C13           -9.3060    -3.2485    -0.9145 C.ar    
  14 C14          -10.4752    -2.9750    -0.2234 C.ar    
  15 C15          -10.5708    -1.8483     0.5643 C.ar    
  16 C16           -9.4822    -0.9792     0.6724 C.ar    
  17 O17           -5.7791    -2.0905     0.0328 O.2     
  18 C18           -9.5773     0.2274     1.5134 C.2     
  19 O19          -10.7483     0.5521     2.0958 O.3     
  20 O20           -8.5998     0.9293     1.6817 O.2     
  21 F21            1.1320     2.1019    -0.0865 F       
  22 H22            0.9402    -0.5008    -0.0871 H       
  23 H23           -1.1700    -1.7676    -0.0500 H       
  24 H24           -3.3653     1.8983    -0.0054 H       
  25 H25           -1.2527     3.1612    -0.0364 H       
  26 H26           -4.7960     0.6731     0.9095 H       
  27 H27           -4.8282     0.6759    -0.8701 H       
  28 H28           -7.3530     0.5601     0.1444 H       
  29 H29           -7.3158    -2.6168    -1.3638 H       
  30 H30           -9.2410    -4.1337    -1.5299 H       
  31 H31          -11.3161    -3.6481    -0.3027 H       
  32 H32          -11.4846    -1.6395     1.1007 H       
  33 H33          -10.7618     1.3525     2.6383 H       
@<TRIPOS>BOND
   1    1    2 ar
   2    1   21 1
   3    1    6 ar
   4    2    3 ar
   5    2   22 1
   6    3    4 ar
   7    3   23 1
   8    4    5 ar
   9    4    7 1
  10    5    6 ar
  11    5   24 1
  12    6   25 1
  13    7    8 1
  14    8    9 1
  15    8   26 1
  16    8   27 1
  17    9   10 am
  18    9   17 2
  19   10   11 1
  20   10   28 1
  21   11   12 ar
  22   11   16 ar
  23   12   13 ar
  24   12   29 1
  25   13   14 ar
  26   13   30 1
  27   14   15 ar
  28   14   31 1
  29   15   16 ar
  30   15   32 1
  31   16   18 1
  32   18   19 1
  33   18   20 2
  34   19   33 1

#	End of record

