#	Name: ASD01881476
#	Creating user name:	WinNT
#	Creation time:	15. 06. 2019 19:42

#	Modifying user name:	WinNT
#	Modification time:	15. 06. 2019 19:42

#	Program:	/corina/corina34_cracker 3.40 0067  02.08.2006

@<TRIPOS>MOLECULE
ASD01881476
  46   48    0    0    0
SMALL
NO_CHARGES


@<TRIPOS>ATOM
   1 N1            -0.0154     1.2844     0.0126 N.pl3   
   2 N2             0.0018    -0.0035    -0.0055 N.2     
   3 N3             1.2029    -0.4643    -0.0256 N.2     
   4 C4             2.0739     0.5649    -0.0212 C.ar    
   5 C5             1.2843     1.7302     0.0040 C.ar    
   6 C6             3.4668     0.6762    -0.0352 C.ar    
   7 C7             4.0484     1.9286    -0.0240 C.ar    
   8 C8             3.2562     3.0740     0.0010 C.ar    
   9 C9             1.8926     2.9786     0.0141 C.ar    
  10 C10           -1.2132     2.1278     0.0325 C.3     
  11 C11           -1.6200     2.4017     1.4818 C.3     
  12 C12           -0.4786     3.1196     2.2049 C.3     
  13 C13           -2.8708     3.2825     1.5027 C.3     
  14 C14           -1.9172     1.0770     2.1872 C.3     
  15 O15            5.4033     2.0444    -0.0370 O.3     
  16 C16            5.9405     3.3642    -0.1452 C.3     
  17 C17            6.0180     3.9988     1.2449 C.3     
  18 C18            7.3217     3.2967    -0.7442 C.ar    
  19 C19            7.7585     4.3003    -1.5886 C.ar    
  20 C20            9.0253     4.2391    -2.1379 C.ar    
  21 C21            9.8562     3.1733    -1.8426 C.ar    
  22 C22            9.4188     2.1693    -0.9977 C.ar    
  23 C23            8.1537     2.2341    -0.4447 C.ar    
  24 Br24          11.5893     3.0887    -2.5943 Br      
  25 Br25           4.5467    -0.8758    -0.0685 Br      
  26 H26            3.7240     4.0474     0.0099 H       
  27 H27            1.2886     3.8737     0.0332 H       
  28 H28           -1.0014     3.0716    -0.4700 H       
  29 H29           -2.0263     1.6164    -0.4826 H       
  30 H30           -0.2668     4.0634     1.7024 H       
  31 H31           -0.7684     3.3148     3.2374 H       
  32 H32            0.4125     2.4922     2.1901 H       
  33 H33           -3.6839     2.7711     0.9875 H       
  34 H34           -3.1606     3.4777     2.5351 H       
  35 H35           -2.6591     4.2263     1.0001 H       
  36 H36           -1.0261     0.4495     2.1723 H       
  37 H37           -2.2070     1.2721     3.2197 H       
  38 H38           -2.7303     0.5655     1.6721 H       
  39 H39            5.2962     3.9675    -0.7846 H       
  40 H40            6.4278     5.0054     1.1623 H       
  41 H41            5.0190     4.0476     1.6781 H       
  42 H42            6.6623     3.3955     1.8843 H       
  43 H43            7.1095     5.1322    -1.8194 H       
  44 H44            9.3663     5.0231    -2.7979 H       
  45 H45           10.0670     1.3368    -0.7671 H       
  46 H46            7.8136     1.4523     0.2183 H       
@<TRIPOS>BOND
   1    1    2 1
   2    1    5 1
   3    1   10 1
   4    2    3 2
   5    3    4 1
   6    4    5 ar
   7    4    6 ar
   8    5    9 ar
   9    6    7 ar
  10    6   25 1
  11    7    8 ar
  12    7   15 1
  13    8    9 ar
  14    8   26 1
  15    9   27 1
  16   10   11 1
  17   10   28 1
  18   10   29 1
  19   11   12 1
  20   11   13 1
  21   11   14 1
  22   12   30 1
  23   12   31 1
  24   12   32 1
  25   13   33 1
  26   13   34 1
  27   13   35 1
  28   14   36 1
  29   14   37 1
  30   14   38 1
  31   15   16 1
  32   16   17 1
  33   16   18 1
  34   16   39 1
  35   17   40 1
  36   17   41 1
  37   17   42 1
  38   18   19 ar
  39   18   23 ar
  40   19   20 ar
  41   19   43 1
  42   20   21 ar
  43   20   44 1
  44   21   22 ar
  45   21   24 1
  46   22   23 ar
  47   22   45 1
  48   23   46 1

#	End of record

