#	Name: ASD07931752
#	Creating user name:	WinNT
#	Creation time:	15. 06. 2019 21:13

#	Modifying user name:	WinNT
#	Modification time:	15. 06. 2019 21:13

#	Program:	/corina/corina34_cracker 3.40 0067  02.08.2006

@<TRIPOS>MOLECULE
ASD07931752
  57   62    0    0    0
SMALL
NO_CHARGES


@<TRIPOS>ATOM
   1 C1            -1.4662     0.5478     0.3509 C.2     
   2 C2            -0.9040    -0.8208     0.3344 C.2     
   3 N3            -0.6302     1.6071     0.0785 N.am    
   4 N4             0.4314    -0.9755     0.5005 N.am    
   5 C5             1.2590     0.2183     0.7249 C.3     
   6 C6             0.7804     1.3283    -0.2227 C.3     
   7 C7            -2.7842     0.7482     0.6246 C.2     
   8 C8            -3.3203     2.0417     0.6432 C.2     
   9 C9            -2.5078     3.1114     0.3842 C.2     
  10 C10           -1.0940     2.8689     0.0866 C.2     
  11 O11           -1.6257    -1.7863     0.1756 O.2     
  12 O12           -0.3457     3.8017    -0.1513 O.2     
  13 C13           -2.6843     5.4031     1.2652 C.2     
  14 N14           -3.3698     6.4711     0.9606 N.2     
  15 C15           -4.1552     6.2093    -0.0950 C.2     
  16 C16           -3.9525     4.9302    -0.4633 C.2     
  17 N17           -3.0188     4.4123     0.3973 N.pl3   
  18 C18           -5.1013     7.1794    -0.7545 C.3     
  19 C19            1.0394    -2.3076     0.4567 C.3     
  20 C20            2.1299    -2.4520    -0.6179 C.3     
  21 C21            2.9244    -3.2738     0.4108 C.3     
  22 C22            2.1507    -2.5121     1.4998 C.3     
  23 O23            1.7146    -3.2083    -1.7570 O.3     
  24 C24            2.4276    -3.0420    -2.9009 C.ar    
  25 C25            3.5600    -2.2770    -2.9006 C.ar    
  26 C26            4.3019    -2.0969    -4.0646 C.ar    
  27 C27            3.9215    -2.6764    -5.2367 C.ar    
  28 C28            2.7628    -3.4707    -5.2788 C.ar    
  29 C29            2.3422    -4.0830    -6.4719 C.ar    
  30 C30            1.2137    -4.8466    -6.4768 C.ar    
  31 C31            0.4663    -5.0305    -5.3100 C.ar    
  32 C32            0.8466    -4.4509    -4.1368 C.ar    
  33 C33            2.0078    -3.6621    -4.0951 C.ar    
  34 F34           -0.6484    -5.7929    -5.3459 F       
  35 F35            0.8114    -5.4337    -7.6251 F       
  36 H36            1.1532     0.5483     1.7584 H       
  37 H37            2.3031    -0.0156     0.5172 H       
  38 H38            0.8777     0.9971    -1.2567 H       
  39 H39            1.3753     2.2281    -0.0661 H       
  40 H40           -3.4227    -0.0985     0.8291 H       
  41 H41           -4.3673     2.1937     0.8601 H       
  42 H42           -1.9679     5.3218     2.0693 H       
  43 H43           -4.4331     4.4116    -1.2797 H       
  44 H44           -4.5787     7.7147    -1.5472 H       
  45 H45           -5.9438     6.6335    -1.1790 H       
  46 H46           -5.4657     7.8916    -0.0142 H       
  47 H47            0.3021    -3.1103     0.4412 H       
  48 H48            2.6068    -1.5091    -0.8856 H       
  49 H49            2.7024    -4.3406     0.3827 H       
  50 H50            3.9938    -3.0627     0.4063 H       
  51 H51            2.6332    -1.5856     1.8112 H       
  52 H52            1.8506    -3.1375     2.3406 H       
  53 H53            3.8837    -1.8053    -1.9845 H       
  54 H54            5.1931    -1.4875    -4.0378 H       
  55 H55            4.5080    -2.5258    -6.1310 H       
  56 H56            2.9104    -3.9486    -7.3805 H       
  57 H57            0.2602    -4.6009    -3.2424 H       
@<TRIPOS>BOND
   1    1    2 1
   2    1    3 1
   3    1    7 2
   4    2    4 am
   5    2   11 2
   6    3    6 1
   7    3   10 am
   8    4    5 1
   9    4   19 1
  10    5    6 1
  11    5   36 1
  12    5   37 1
  13    6   38 1
  14    6   39 1
  15    7    8 1
  16    7   40 1
  17    8    9 2
  18    8   41 1
  19    9   10 1
  20    9   17 1
  21   10   12 2
  22   13   14 2
  23   13   17 1
  24   13   42 1
  25   14   15 1
  26   15   16 2
  27   15   18 1
  28   16   17 1
  29   16   43 1
  30   18   44 1
  31   18   45 1
  32   18   46 1
  33   19   20 1
  34   19   22 1
  35   19   47 1
  36   20   21 1
  37   20   23 1
  38   20   48 1
  39   21   22 1
  40   21   49 1
  41   21   50 1
  42   22   51 1
  43   22   52 1
  44   23   24 1
  45   24   25 ar
  46   24   33 ar
  47   25   26 ar
  48   25   53 1
  49   26   27 ar
  50   26   54 1
  51   27   28 ar
  52   27   55 1
  53   28   29 ar
  54   28   33 ar
  55   29   30 ar
  56   29   56 1
  57   30   31 ar
  58   30   35 1
  59   31   32 ar
  60   31   34 1
  61   32   33 ar
  62   32   57 1

#	End of record

