#	Name: ASD01883040
#	Creating user name:	WinNT
#	Creation time:	15. 06. 2019 19:45

#	Modifying user name:	WinNT
#	Modification time:	15. 06. 2019 19:45

#	Program:	/corina/corina34_cracker 3.40 0067  02.08.2006

@<TRIPOS>MOLECULE
ASD01883040
  49   52    0    0    0
SMALL
NO_CHARGES


@<TRIPOS>ATOM
   1 N1            -0.0374     1.3782     0.1782 N.am    
   2 C2            -0.0147     0.0415     0.0226 C.2     
   3 C3            -1.2291    -0.6877    -0.0032 C.2     
   4 C4            -2.4402     0.0133     0.1361 C.2     
   5 C5            -2.3974     1.4124     0.2958 C.2     
   6 C6            -1.2071     2.0536     0.3183 C.2     
   7 O7             1.0497    -0.5411    -0.0964 O.2     
   8 C8            -1.2235    -2.1101    -0.1684 C.1     
   9 N9            -1.2190    -3.2385    -0.2994 N.1     
  10 C10            1.2262     2.1190     0.2030 C.3     
  11 C11            1.5972     2.5424    -1.2196 C.3     
  12 C12           -5.3553    -2.0265    -1.0625 C.ar    
  13 C13           -3.7322    -0.7034     0.1150 C.ar    
  14 C14           -4.5390    -0.7261     1.2553 C.ar    
  15 C15           -6.1559    -2.0483     0.0726 C.ar    
  16 O16           -7.3432    -2.7069     0.0515 O.3     
  17 C17           -8.4624    -1.9953    -0.2446 C.ar    
  18 C18           -8.3925    -0.6198    -0.4413 C.ar    
  19 C19           -9.5605     0.0626    -0.7417 C.ar    
  20 C20          -10.7473    -0.6396    -0.8354 C.ar    
  21 N21          -10.7793    -1.9439    -0.6431 N.ar    
  22 C22           -9.6905    -2.6310    -0.3608 C.ar    
  23 C23           -4.1500    -1.3595    -1.0455 C.ar    
  24 C24            2.9168     3.3162    -1.1937 C.3     
  25 C25            3.5212     3.7274    -2.5378 C.3     
  26 C26            2.8849     4.7822    -1.6304 C.3     
  27 C27           -5.7445    -1.3959     1.2310 C.ar    
  28 F28           -6.5261    -1.4191     2.3327 F       
  29 C29           -9.7822    -4.1204    -0.1503 C.3     
  30 H30           -3.3147     1.9721     0.4043 H       
  31 H31           -1.1867     3.1263     0.4416 H       
  32 H32            1.1158     3.0048     0.8286 H       
  33 H33            2.0124     1.4829     0.6095 H       
  34 H34            1.7076     1.6566    -1.8452 H       
  35 H35            0.8109     3.1786    -1.6261 H       
  36 H36           -5.6760    -2.5374    -1.9584 H       
  37 H37           -4.2192    -0.2204     2.1543 H       
  38 H38           -7.4510    -0.0966    -0.3615 H       
  39 H39           -9.5437     1.1308    -0.9004 H       
  40 H40          -11.6608    -0.1130    -1.0689 H       
  41 H41           -3.5284    -1.3441    -1.9285 H       
  42 H42            3.6059     3.0437    -0.3944 H       
  43 H43            4.6079     3.7258    -2.6226 H       
  44 H44            2.9786     3.4467    -3.4405 H       
  45 H45            1.9237     5.1954    -1.9361 H       
  46 H46            3.5530     5.4746    -1.1182 H       
  47 H47           -9.6401    -4.6314    -1.1025 H       
  48 H48           -9.0095    -4.4365     0.5505 H       
  49 H49          -10.7633    -4.3706     0.2535 H       
@<TRIPOS>BOND
   1    1    2 am
   2    1   10 1
   3    1    6 1
   4    2    3 1
   5    2    7 2
   6    3    4 2
   7    3    8 1
   8    4    5 1
   9    4   13 1
  10    5    6 2
  11    5   30 1
  12    6   31 1
  13    8    9 3
  14   10   11 1
  15   10   32 1
  16   10   33 1
  17   11   24 1
  18   11   34 1
  19   11   35 1
  20   12   23 ar
  21   12   15 ar
  22   12   36 1
  23   13   14 ar
  24   13   23 ar
  25   14   27 ar
  26   14   37 1
  27   15   16 1
  28   15   27 ar
  29   16   17 1
  30   17   18 ar
  31   17   22 ar
  32   18   19 ar
  33   18   38 1
  34   19   20 ar
  35   19   39 1
  36   20   21 ar
  37   20   40 1
  38   21   22 ar
  39   22   29 1
  40   23   41 1
  41   24   25 1
  42   24   26 1
  43   24   42 1
  44   25   26 1
  45   25   43 1
  46   25   44 1
  47   26   45 1
  48   26   46 1
  49   27   28 1
  50   29   47 1
  51   29   48 1
  52   29   49 1

#	End of record

