#	Name: ASD01840499
#	Creating user name:	WinNT
#	Creation time:	15. 06. 2019 19:37

#	Modifying user name:	WinNT
#	Modification time:	15. 06. 2019 19:37

#	Program:	/corina/corina34_cracker 3.40 0067  02.08.2006

@<TRIPOS>MOLECULE
ASD01840499
  41   43    0    0    0
SMALL
NO_CHARGES


@<TRIPOS>ATOM
   1 Cl1            0.0000     0.0000     0.0000 Cl      
   2 H2             0.0000     1.3700     0.0000 H       
   3 C3             9.6524    18.4504     6.2379 C.3     
   4 C4             9.4167    16.9620     6.2200 C.ar    
   5 N5             9.4159    16.3078     5.0727 N.ar    
   6 N6             9.2210    15.0445     5.0000 N.ar    
   7 C7             9.0032    14.2911     6.0817 C.ar    
   8 S8             8.7152    12.5647     6.2226 S.3     
   9 C9             8.5692    12.6375     7.9700 C.ar    
  10 C10            8.3220    11.6187     8.9087 C.ar    
  11 N11            8.1523    10.3079     8.4750 N.pl3   
  12 C12            7.8947     9.2423     9.4468 C.3     
  13 C13            6.3794     9.1216     9.7094 C.3     
  14 C14            5.9172     7.9925     8.7552 C.3     
  15 C15            7.0976     6.9912     8.8135 C.3     
  16 C16            8.3514     7.8878     8.8771 C.3     
  17 N17            8.2504    11.8957    10.1965 N.ar    
  18 C18            8.4050    13.1262    10.6559 C.ar    
  19 C19            8.6469    14.1702     9.8154 C.ar    
  20 C20            8.7354    13.9378     8.4242 C.ar    
  21 C21            8.9857    14.8924     7.3380 C.ar    
  22 C22            9.2074    16.2830     7.4029 C.ar    
  23 C23            9.2105    17.0074     8.7243 C.3     
  24 H24           10.7205    18.6480     6.3285 H       
  25 H25            9.2791    18.8885     5.3122 H       
  26 H26            9.1281    18.8912     7.0858 H       
  27 H27            8.2044    10.0995     7.5291 H       
  28 H28            8.4203     9.4519    10.3784 H       
  29 H29            6.1929     8.8444    10.7470 H       
  30 H30            5.8745    10.0566     9.4667 H       
  31 H31            5.0000     7.5299     9.1197 H       
  32 H32            5.7832     8.3731     7.7427 H       
  33 H33            7.0271     6.3700     9.7064 H       
  34 H34            7.1168     6.3716     7.9170 H       
  35 H35            8.7646     8.0233     7.8776 H       
  36 H36            9.0980     7.4396     9.5327 H       
  37 H37            8.3379    13.3069    11.7186 H       
  38 H38            8.7701    15.1683    10.2091 H       
  39 H39            8.1862    17.2470     9.0098 H       
  40 H40            9.6607    16.3712     9.4864 H       
  41 H41            9.7869    17.9280     8.6327 H       
@<TRIPOS>BOND
   1    1    2 1
   2    3    4 1
   3    3   24 1
   4    3   25 1
   5    3   26 1
   6    4   22 ar
   7    4    5 ar
   8    5    6 ar
   9    6    7 ar
  10    7   21 ar
  11    7    8 1
  12    8    9 1
  13    9   20 ar
  14    9   10 ar
  15   10   11 1
  16   10   17 ar
  17   11   12 1
  18   11   27 1
  19   12   16 1
  20   12   13 1
  21   12   28 1
  22   13   14 1
  23   13   29 1
  24   13   30 1
  25   14   15 1
  26   14   31 1
  27   14   32 1
  28   15   16 1
  29   15   33 1
  30   15   34 1
  31   16   35 1
  32   16   36 1
  33   17   18 ar
  34   18   19 ar
  35   18   37 1
  36   19   20 ar
  37   19   38 1
  38   20   21 1
  39   21   22 ar
  40   22   23 1
  41   23   39 1
  42   23   40 1
  43   23   41 1

#	End of record

