#	Name: ASD01913139
#	Creating user name:	WinNT
#	Creation time:	15. 06. 2019 20:01

#	Modifying user name:	WinNT
#	Modification time:	15. 06. 2019 20:01

#	Program:	/corina/corina34_cracker 3.40 0067  02.08.2006

@<TRIPOS>MOLECULE
ASD01913139
  46   48    0    0    0
SMALL
NO_CHARGES


@<TRIPOS>ATOM
   1 C1             0.0404     1.1750     0.0603 C.ar    
   2 C2             0.0301    -0.2093     0.0828 C.ar    
   3 C3            -1.1711    -0.8917     0.0926 C.ar    
   4 C4            -2.3671    -0.1893     0.0797 C.ar    
   5 C5            -2.3554     1.1975     0.0571 C.ar    
   6 C6            -1.1527     1.8775     0.0528 C.ar    
   7 F7             1.2157     1.8411     0.0513 F       
   8 O8            -3.5499    -0.8596     0.0888 O.3     
   9 C9            -4.7421    -0.0719     0.0746 C.3     
  10 C10           -5.9628    -0.9941     0.0876 C.3     
  11 C11           -7.2201    -0.1634     0.0727 C.2     
  12 N12           -8.4258    -0.7656     0.0806 N.am    
  13 C13           -9.6652     0.0261     0.0663 C.3     
  14 C14          -10.5643    -0.4973    -1.0588 C.3     
  15 N15          -10.7538    -1.9450    -0.8964 N.3     
  16 C16           -9.4805    -2.6666    -1.0227 C.3     
  17 C17           -8.5371    -2.2321     0.0978 C.3     
  18 O18           -7.1470     1.0471     0.0534 O.2     
  19 C19          -11.6926    -2.4290    -1.8005 C.ar    
  20 C20          -13.0377    -2.0405    -1.6965 C.ar    
  21 C21          -13.9721    -2.5352    -2.6138 C.ar    
  22 C22          -13.5651    -3.3993    -3.6114 C.ar    
  23 C23          -12.2371    -3.7788    -3.7085 C.ar    
  24 C24          -11.3035    -3.2945    -2.8139 C.ar    
  25 F25          -15.2692    -2.1686    -2.5233 F       
  26 C26          -13.4510    -1.1444    -0.6587 C.1     
  27 N27          -13.7789    -0.4336     0.1645 N.1     
  28 H28            0.9615    -0.7559     0.0925 H       
  29 H29           -1.1789    -1.9715     0.1098 H       
  30 H30           -3.2859     1.7456     0.0467 H       
  31 H31           -1.1433     2.9573     0.0355 H       
  32 H32           -4.7631     0.5713     0.9544 H       
  33 H33           -4.7607     0.5428    -0.8253 H       
  34 H34           -5.9418    -1.6372    -0.7921 H       
  35 H35           -5.9442    -1.6088     0.9876 H       
  36 H36          -10.1774    -0.0781     1.0228 H       
  37 H37           -9.4278     1.0748    -0.1127 H       
  38 H38          -11.5314     0.0034    -1.0144 H       
  39 H39          -10.0949    -0.2978    -2.0221 H       
  40 H40           -9.6617    -3.7391    -0.9520 H       
  41 H41           -9.0262    -2.4368    -1.9865 H       
  42 H42           -7.5544    -2.6773    -0.0578 H       
  43 H43           -8.9389    -2.5517     1.0593 H       
  44 H44          -14.2863    -3.7812    -4.3188 H       
  45 H45          -11.9286    -4.4552    -4.4919 H       
  46 H46          -10.2697    -3.5958    -2.8978 H       
@<TRIPOS>BOND
   1    1    2 ar
   2    1    7 1
   3    1    6 ar
   4    2    3 ar
   5    2   28 1
   6    3    4 ar
   7    3   29 1
   8    4    5 ar
   9    4    8 1
  10    5    6 ar
  11    5   30 1
  12    6   31 1
  13    8    9 1
  14    9   10 1
  15    9   32 1
  16    9   33 1
  17   10   11 1
  18   10   34 1
  19   10   35 1
  20   11   12 am
  21   11   18 2
  22   12   13 1
  23   12   17 1
  24   13   14 1
  25   13   36 1
  26   13   37 1
  27   14   15 1
  28   14   38 1
  29   14   39 1
  30   15   16 1
  31   15   19 1
  32   16   17 1
  33   16   40 1
  34   16   41 1
  35   17   42 1
  36   17   43 1
  37   19   20 ar
  38   19   24 ar
  39   20   21 ar
  40   20   26 1
  41   21   22 ar
  42   21   25 1
  43   22   23 ar
  44   22   44 1
  45   23   24 ar
  46   23   45 1
  47   24   46 1
  48   26   27 3

#	End of record

