#	Name: ASD01410738
#	Creating user name:	WinNT
#	Creation time:	15. 06. 2019 19:18

#	Modifying user name:	WinNT
#	Modification time:	15. 06. 2019 19:18

#	Program:	/corina/corina34_cracker 3.40 0067  02.08.2006

@<TRIPOS>MOLECULE
ASD01410738
  65   66    0    0    0
SMALL
NO_CHARGES


@<TRIPOS>ATOM
   1 S1             2.0133     1.5525    -0.9680 S.3     
   2 C2             1.3195     0.0085    -0.4930 C.2     
   3 C3             2.3142    -0.9372    -0.4032 C.2     
   4 C4             3.5720    -0.4682    -0.6959 C.2     
   5 C5             3.6258     0.8550    -1.0263 C.2     
   6 C6             4.8186     1.5689    -1.3700 C.1     
   7 C7             5.7965     2.1542    -1.6517 C.1     
   8 C8             7.0227     2.8881    -2.0050 C.3     
   9 C9             8.2210     1.9388    -1.9430 C.3     
  10 C10            6.8902     3.4504    -3.4217 C.3     
  11 C11           -0.0520    -0.2253    -0.2412 C.2     
  12 N12            2.0665    -2.2628    -0.0439 N.am    
  13 O13           -0.9197     0.8087    -0.2168 O.3     
  14 O14           -0.4504    -1.3589    -0.0463 O.2     
  15 C15            2.1223    -2.6627     1.3643 C.3     
  16 C16            1.7759    -3.1751    -0.9925 C.2     
  17 C17            1.8335    -2.7922    -2.4489 C.3     
  18 O18            1.4679    -4.3041    -0.6740 O.2     
  19 C19            0.8006    -3.3245     1.7594 C.3     
  20 C20            3.2526    -3.6391     1.5648 C.2     
  21 C21            1.7556    -4.0537    -3.3113 C.3     
  22 C22            0.4419    -4.7849    -3.0278 C.3     
  23 C23           -0.7353    -3.8661    -3.3606 C.3     
  24 C24           -0.6574    -2.6047    -2.4982 C.3     
  25 C25            0.6563    -1.8734    -2.7817 C.3     
  26 C26           -2.0490    -4.5974    -3.0771 C.3     
  27 N27            3.7835    -3.8129     2.7914 N.am    
  28 O28            3.6845    -4.2686     0.6224 O.2     
  29 C29            4.8822    -4.7620     2.9863 C.3     
  30 C30            3.2617    -3.0525     3.9298 C.3     
  31 C31            7.2313     4.0378    -1.0173 C.3     
  32 H32            4.4495    -1.0972    -0.6664 H       
  33 H33            8.0723     1.1196    -2.6466 H       
  34 H34            9.1289     2.4822    -2.2046 H       
  35 H35            8.3153     1.5382    -0.9337 H       
  36 H36            6.0365     4.1267    -3.4658 H       
  37 H37            7.7982     3.9938    -3.6833 H       
  38 H38            6.7416     2.6312    -4.1253 H       
  39 H39           -1.8341     0.5506    -0.0372 H       
  40 H40            2.2880    -1.7826     1.9857 H       
  41 H41            2.7694    -2.2713    -2.6509 H       
  42 H42            0.6495    -4.2213     1.1586 H       
  43 H43            0.8309    -3.5950     2.8148 H       
  44 H44           -0.0202    -2.6285     1.5861 H       
  45 H45            1.7974    -3.7768    -4.3647 H       
  46 H46            2.5943    -4.7082    -3.0742 H       
  47 H47            0.3864    -5.6836    -3.6421 H       
  48 H48            0.4002    -5.0618    -1.9744 H       
  49 H49           -0.6936    -3.5892    -4.4140 H       
  50 H50           -1.4961    -1.9501    -2.7354 H       
  51 H51           -0.6991    -2.8816    -1.4448 H       
  52 H52            0.7118    -0.9748    -2.1674 H       
  53 H53            0.6980    -1.5965    -3.8351 H       
  54 H54           -2.0907    -4.8743    -2.0237 H       
  55 H55           -2.8877    -3.9428    -3.3142 H       
  56 H56           -2.1045    -5.4960    -3.6915 H       
  57 H57            5.8341    -4.2497     2.8465 H       
  58 H58            4.8345    -5.1709     3.9955 H       
  59 H59            4.7957    -5.5718     2.2617 H       
  60 H60            2.4530    -3.6117     4.4002 H       
  61 H61            4.0598    -2.8892     4.6540 H       
  62 H62            2.8843    -2.0909     3.5820 H       
  63 H63            7.3257     3.6373    -0.0080 H       
  64 H64            8.1393     4.5813    -1.2789 H       
  65 H65            6.3776     4.7141    -1.0615 H       
@<TRIPOS>BOND
   1    1    2 1
   2    1    5 1
   3    2    3 2
   4    2   11 1
   5    3    4 1
   6    3   12 1
   7    4    5 2
   8    4   32 1
   9    5    6 1
  10    6    7 3
  11    7    8 1
  12    8    9 1
  13    8   10 1
  14    8   31 1
  15    9   33 1
  16    9   34 1
  17    9   35 1
  18   10   36 1
  19   10   37 1
  20   10   38 1
  21   11   13 1
  22   11   14 2
  23   12   15 1
  24   12   16 am
  25   13   39 1
  26   15   19 1
  27   15   20 1
  28   15   40 1
  29   16   17 1
  30   16   18 2
  31   17   21 1
  32   17   25 1
  33   17   41 1
  34   19   42 1
  35   19   43 1
  36   19   44 1
  37   20   27 am
  38   20   28 2
  39   21   22 1
  40   21   45 1
  41   21   46 1
  42   22   23 1
  43   22   47 1
  44   22   48 1
  45   23   24 1
  46   23   26 1
  47   23   49 1
  48   24   25 1
  49   24   50 1
  50   24   51 1
  51   25   52 1
  52   25   53 1
  53   26   54 1
  54   26   55 1
  55   26   56 1
  56   27   29 1
  57   27   30 1
  58   29   57 1
  59   29   58 1
  60   29   59 1
  61   30   60 1
  62   30   61 1
  63   30   62 1
  64   31   63 1
  65   31   64 1
  66   31   65 1

#	End of record

