#	Name: ASD02470008
#	Creating user name:	WinNT
#	Creation time:	15. 06. 2019 20:22

#	Modifying user name:	WinNT
#	Modification time:	15. 06. 2019 20:22

#	Program:	/corina/corina34_cracker 3.40 0067  02.08.2006

@<TRIPOS>MOLECULE
ASD02470008
  15   14    0    0    0
SMALL
NO_CHARGES


@<TRIPOS>ATOM
   1 C1            -0.0187     1.5258     0.0104 C.3     
   2 C2             0.0021    -0.0041     0.0020 C.3     
   3 C3             0.6310    -0.5127     1.3007 C.3     
   4 C4            -1.4290    -0.5329    -0.1129 C.3     
   5 O5             1.3220     2.0204     0.0003 O.3     
   6 H6            -0.5459     1.8868    -0.8726 H       
   7 H7            -0.5289     1.8773     0.9072 H       
   8 H8             0.5883    -0.3548    -0.8473 H       
   9 H9             0.0448    -0.1620     2.1500 H       
  10 H10            0.6458    -1.6026     1.2947 H       
  11 H11            1.6506    -0.1360     1.3826 H       
  12 H12           -1.8771    -0.1705    -1.0381 H       
  13 H13           -1.4142    -1.6228    -0.1189 H       
  14 H14           -2.0153    -0.1821     0.7365 H       
  15 H15            1.3852     2.9853     0.0049 H       
@<TRIPOS>BOND
   1    1    2 1
   2    1    5 1
   3    1    6 1
   4    1    7 1
   5    2    3 1
   6    2    4 1
   7    2    8 1
   8    3    9 1
   9    3   10 1
  10    3   11 1
  11    4   12 1
  12    4   13 1
  13    4   14 1
  14    5   15 1

#	End of record

