#	Name: ASD01881472
#	Creating user name:	WinNT
#	Creation time:	15. 06. 2019 19:42

#	Modifying user name:	WinNT
#	Modification time:	15. 06. 2019 19:42

#	Program:	/corina/corina34_cracker 3.40 0067  02.08.2006

@<TRIPOS>MOLECULE
ASD01881472
  55   59    0    0    0
SMALL
NO_CHARGES


@<TRIPOS>ATOM
   1 C1            -0.0170     1.4023     0.0098 C.2     
   2 C2             0.0021    -0.0041     0.0020 C.2     
   3 C3             1.2207    -0.6577    -0.0131 C.2     
   4 C4             2.4157     0.1021    -0.0205 C.2     
   5 C5             2.3639     1.4472    -0.0123 C.2     
   6 N6             1.1655     2.1016     0.0022 N.pl3   
   7 N7            -0.4879     3.4812     0.0230 N.2     
   8 N8            -0.9925     2.2976     0.0186 N.2     
   9 C9             0.8188     3.4178     0.0126 C.2     
  10 C10            1.2755    -2.1386    -0.0211 C.ar    
  11 C11            1.8000    -2.8137    -1.1228 C.ar    
  12 C12            1.8489    -4.1927    -1.1242 C.ar    
  13 C13            1.3787    -4.9054    -0.0357 C.ar    
  14 C14            0.8572    -4.2412     1.0601 C.ar    
  15 C15            0.8080    -2.8623     1.0754 C.ar    
  16 C16            1.4344    -6.4113    -0.0438 C.3     
  17 N17            2.7128    -6.8571     0.5264 N.3     
  18 C18            2.7100    -8.3078     0.7544 C.3     
  19 C19            3.9947    -8.7139     1.4801 C.3     
  20 C20            5.2036    -8.3145     0.6295 C.3     
  21 C21            5.1566    -6.8069     0.3660 C.3     
  22 C22            3.8382    -6.4560    -0.3274 C.3     
  23 C23            6.4923    -8.6629     1.3771 C.3     
  24 F24            6.5307   -10.0395     1.6236 F       
  25 F25            7.5961    -8.2976     0.5990 F       
  26 F26            6.5284    -7.9704     2.5921 F       
  27 C27            1.7674     4.5888     0.0098 C.3     
  28 C28            2.0746     4.9929    -1.4335 C.3     
  29 C29            2.9312     6.2419    -1.6504 C.3     
  30 C30            3.5209     4.8548    -1.9132 C.3     
  31 Cl31          -1.4815    -0.9056     0.0119 Cl      
  32 H32            3.3721    -0.3994    -0.0323 H       
  33 H33            3.2820     2.0160    -0.0173 H       
  34 H34            2.1670    -2.2584    -1.9733 H       
  35 H35            2.2546    -4.7167    -1.9770 H       
  36 H36            0.4913    -4.8029     1.9069 H       
  37 H37            0.4047    -2.3447     1.9332 H       
  38 H38            0.6126    -6.8086     0.5520 H       
  39 H39            1.3480    -6.7726    -1.0685 H       
  40 H40            1.8476    -8.5779     1.3640 H       
  41 H41            2.6544    -8.8258    -0.2030 H       
  42 H42            4.0442    -8.2069     2.4437 H       
  43 H43            3.9994    -9.7928     1.6353 H       
  44 H44            5.1750    -8.8511    -0.3188 H       
  45 H45            5.2244    -6.2698     1.3121 H       
  46 H46            5.9915    -6.5232    -0.2748 H       
  47 H47            3.7773    -6.9827    -1.2797 H       
  48 H48            3.7953    -5.3812    -0.5035 H       
  49 H49            1.3095     5.4286     0.5326 H       
  50 H50            2.6925     4.3082     0.5133 H       
  51 H51            1.2832     4.7937    -2.1561 H       
  52 H52            2.7036     6.8642    -2.5158 H       
  53 H53            3.2759     6.7758    -0.7648 H       
  54 H54            4.2535     4.4761    -1.2005 H       
  55 H55            3.6812     4.5645    -2.9515 H       
@<TRIPOS>BOND
   1    1    2 1
   2    1    6 1
   3    1    8 2
   4    2    3 2
   5    2   31 1
   6    3    4 1
   7    3   10 1
   8    4    5 2
   9    4   32 1
  10    5    6 1
  11    5   33 1
  12    6    9 1
  13    7    8 1
  14    7    9 2
  15    9   27 1
  16   10   11 ar
  17   10   15 ar
  18   11   12 ar
  19   11   34 1
  20   12   13 ar
  21   12   35 1
  22   13   14 ar
  23   13   16 1
  24   14   15 ar
  25   14   36 1
  26   15   37 1
  27   16   17 1
  28   16   38 1
  29   16   39 1
  30   17   18 1
  31   17   22 1
  32   18   19 1
  33   18   40 1
  34   18   41 1
  35   19   20 1
  36   19   42 1
  37   19   43 1
  38   20   21 1
  39   20   23 1
  40   20   44 1
  41   21   22 1
  42   21   45 1
  43   21   46 1
  44   22   47 1
  45   22   48 1
  46   23   24 1
  47   23   25 1
  48   23   26 1
  49   27   28 1
  50   27   49 1
  51   27   50 1
  52   28   29 1
  53   28   30 1
  54   28   51 1
  55   29   30 1
  56   29   52 1
  57   29   53 1
  58   30   54 1
  59   30   55 1

#	End of record

