#	Name: ASD03451020
#	Creating user name:	WinNT
#	Creation time:	15. 06. 2019 20:42

#	Modifying user name:	WinNT
#	Modification time:	15. 06. 2019 20:42

#	Program:	/corina/corina34_cracker 3.40 0067  02.08.2006

@<TRIPOS>MOLECULE
ASD03451020
  36   39    0    0    0
SMALL
NO_CHARGES


@<TRIPOS>ATOM
   1 C1            -0.0013     1.6158     0.0517 C.ar    
   2 C2            -0.0341     0.2339    -0.0133 C.ar    
   3 C3             1.1556    -0.4686    -0.0583 C.ar    
   4 C4             2.3644     0.2435    -0.0367 C.ar    
   5 C5             2.3222     1.6425     0.0234 C.ar    
   6 N6             1.1397     2.2672     0.0682 N.ar    
   7 C7             3.6171    -0.5251    -0.0733 C.2     
   8 N8             4.6675    -0.2337     0.6213 N.2     
   9 C9             4.6930     0.9291     1.5089 C.3     
  10 C10            4.5150     2.1734     0.6843 C.2     
  11 N11            3.4337     2.4196     0.0333 N.2     
  12 C12            3.6791    -1.7039    -0.9585 C.2     
  13 C13            3.5730     0.8234     2.5117 C.2     
  14 S14            2.6772     2.1824     3.1781 S.3     
  15 C15            1.6937     1.0958     4.1506 C.2     
  16 C16            2.0719    -0.1648     3.9334 C.2     
  17 C17            3.1056    -0.3155     3.0253 C.2     
  18 C18            4.7412    -2.5668    -1.1530 C.2     
  19 C19            4.4234    -3.5543    -2.0583 C.2     
  20 N20            3.2368    -3.5423    -2.5773 N.2     
  21 S21            2.4075    -2.3445    -2.0110 S.3     
  22 N22            5.5372     3.0739     0.6249 N.pl3   
  23 C23            5.3920     4.2954    -0.1708 C.3     
  24 H24           -0.9288     2.1682     0.0849 H       
  25 H25           -0.9785    -0.2898    -0.0284 H       
  26 H26            1.1547    -1.5474    -0.1088 H       
  27 H27            5.6495     0.9699     2.0299 H       
  28 H28            0.9047     1.4024     4.8212 H       
  29 H29            1.6043    -1.0045     4.4260 H       
  30 H30            3.5079    -1.2814     2.7580 H       
  31 H31            5.6972    -2.4779    -0.6586 H       
  32 H32            5.1413    -4.3149    -2.3275 H       
  33 H33            6.3605     2.9057     1.1095 H       
  34 H34            6.3044     4.8873    -0.0976 H       
  35 H35            5.2131     4.0310    -1.2130 H       
  36 H36            4.5506     4.8767     0.2062 H       
@<TRIPOS>BOND
   1    1    2 ar
   2    1    6 ar
   3    1   24 1
   4    2    3 ar
   5    2   25 1
   6    3    4 ar
   7    3   26 1
   8    4    5 ar
   9    4    7 1
  10    5    6 ar
  11    5   11 1
  12    7    8 2
  13    7   12 1
  14    8    9 1
  15    9   10 1
  16    9   13 1
  17    9   27 1
  18   10   11 2
  19   10   22 1
  20   12   18 2
  21   12   21 1
  22   13   14 1
  23   13   17 2
  24   14   15 1
  25   15   16 2
  26   15   28 1
  27   16   17 1
  28   16   29 1
  29   17   30 1
  30   18   19 1
  31   18   31 1
  32   19   20 2
  33   19   32 1
  34   20   21 1
  35   22   23 1
  36   22   33 1
  37   23   34 1
  38   23   35 1
  39   23   36 1

#	End of record

