#	Name: ASD00122079
#	Creating user name:	WinNT
#	Creation time:	15. 06. 2019 18:31

#	Modifying user name:	WinNT
#	Modification time:	15. 06. 2019 18:31

#	Program:	/corina/corina34_cracker 3.40 0067  02.08.2006

@<TRIPOS>MOLECULE
ASD00122079
  34   37    0    0    0
SMALL
NO_CHARGES


@<TRIPOS>ATOM
   1 C1            -0.0168     1.3861     0.0097 C.ar    
   2 C2             0.0021    -0.0041     0.0020 C.ar    
   3 N3            -1.1610    -0.6724     0.0092 N.ar    
   4 C4            -2.3066    -0.0315     0.0227 C.ar    
   5 N5            -2.3772     1.2874     0.0300 N.ar    
   6 C6            -1.2805     2.0326     0.0197 C.ar    
   7 C7             1.3268     1.9705    -0.0000 C.2     
   8 C8             2.3021     1.0729    -0.0142 C.2     
   9 S9             1.6621    -0.5701    -0.0169 S.3     
  10 S10           -1.3895     3.7912     0.0300 S.3     
  11 C11           -3.1879     3.9945     0.0539 C.3     
  12 C12           -3.5273     5.4627     0.0657 C.ar    
  13 C13           -3.6983     6.1421    -1.1260 C.ar    
  14 C14           -4.0096     7.4889    -1.1152 C.ar    
  15 C15           -4.1505     8.1562     0.0872 C.ar    
  16 C16           -3.9804     7.4765     1.2788 C.ar    
  17 C17           -3.6733     6.1288     1.2681 C.ar    
  18 C18            1.9102     3.3836     0.0015 C.3     
  19 C19            3.3783     3.2058     0.4360 C.3     
  20 C20            3.6635     1.7622    -0.0234 C.3     
  21 H21           -3.2233    -0.6026     0.0278 H       
  22 H22           -3.6180     3.5292    -0.8330 H       
  23 H23           -3.5953     3.5202     0.9468 H       
  24 H24           -3.5883     5.6208    -2.0654 H       
  25 H25           -4.1425     8.0199    -2.0463 H       
  26 H26           -4.3930     9.2085     0.0956 H       
  27 H27           -4.0901     7.9979     2.2183 H       
  28 H28           -3.5405     5.5978     2.1992 H       
  29 H29            1.8603     3.8154    -0.9980 H       
  30 H30            1.3774     4.0129     0.7144 H       
  31 H31            4.0267     3.9150    -0.0785 H       
  32 H32            3.4799     3.2991     1.5173 H       
  33 H33            4.3427     1.2698     0.6726 H       
  34 H34            4.0829     1.7601    -1.0295 H       
@<TRIPOS>BOND
   1    1    2 ar
   2    1    7 1
   3    1    6 ar
   4    2    3 ar
   5    2    9 1
   6    3    4 ar
   7    4    5 ar
   8    4   21 1
   9    5    6 ar
  10    6   10 1
  11    7    8 2
  12    7   18 1
  13    8    9 1
  14    8   20 1
  15   10   11 1
  16   11   12 1
  17   11   22 1
  18   11   23 1
  19   12   13 ar
  20   12   17 ar
  21   13   14 ar
  22   13   24 1
  23   14   15 ar
  24   14   25 1
  25   15   16 ar
  26   15   26 1
  27   16   17 ar
  28   16   27 1
  29   17   28 1
  30   18   19 1
  31   18   29 1
  32   18   30 1
  33   19   20 1
  34   19   31 1
  35   19   32 1
  36   20   33 1
  37   20   34 1

#	End of record

