#	Name: ASD01152571
#	Creating user name:	WinNT
#	Creation time:	15. 06. 2019 19:06

#	Modifying user name:	WinNT
#	Modification time:	15. 06. 2019 19:06

#	Program:	/corina/corina34_cracker 3.40 0067  02.08.2006

@<TRIPOS>MOLECULE
ASD01152571
  36   38    0    0    0
SMALL
NO_CHARGES


@<TRIPOS>ATOM
   1 C1            -0.0155     1.2910     0.0091 C.2     
   2 N2             0.0021    -0.0041     0.0020 N.2     
   3 N3            -1.1330    -0.8090     0.0085 N.am    
   4 C4            -2.3789    -0.2930     0.0232 C.2     
   5 C5            -2.5236     1.2163     0.0327 C.3     
   6 C6            -1.2345     2.0162     0.0305 C.2     
   7 C7            -3.3185     1.6092     1.2795 C.3     
   8 O8            -1.2458     3.2301     0.0376 O.2     
   9 Br9            1.6219     2.2370    -0.0014 Br      
  10 C10           -0.9769    -2.1955    -0.0009 C.ar    
  11 O11           -3.3536    -1.0140     0.0282 O.2     
  12 C12           -3.5870     3.0919     1.2575 C.ar    
  13 C13           -0.2164    -2.8125    -1.0055 C.ar    
  14 C14           -1.5685    -2.9705     0.9868 C.ar    
  15 C15           -1.4121    -4.3425     0.9763 C.ar    
  16 C16           -0.6659    -4.9554    -0.0168 C.ar    
  17 C17           -0.0674    -4.2011    -1.0035 C.ar    
  18 C18           -4.7333     3.5774     0.6563 C.ar    
  19 C19           -2.6896     3.9651     1.8436 C.ar    
  20 C20           -2.9348     5.3250     1.8240 C.ar    
  21 C21           -4.9805     4.9370     0.6355 C.ar    
  22 C22           -4.0797     5.8129     1.2171 C.ar    
  23 F23           -4.3205     7.1421     1.1978 F       
  24 C24            0.4030    -2.0231    -2.0272 C.1     
  25 N25            0.8944    -1.3969    -2.8378 N.1     
  26 H26           -3.1067     1.5057    -0.8416 H       
  27 H27           -4.2650     1.0687     1.2923 H       
  28 H28           -2.7441     1.3572     2.1710 H       
  29 H29           -2.1514    -2.5000     1.7647 H       
  30 H30           -1.8741    -4.9412     1.7473 H       
  31 H31           -0.5490    -6.0291    -0.0158 H       
  32 H32            0.5161    -4.6834    -1.7737 H       
  33 H33           -5.4356     2.8941     0.2023 H       
  34 H34           -1.7968     3.5843     2.3172 H       
  35 H35           -2.2337     6.0070     2.2822 H       
  36 H36           -5.8763     5.3160     0.1660 H       
@<TRIPOS>BOND
   1    1    2 2
   2    1    9 1
   3    1    6 1
   4    2    3 1
   5    3    4 am
   6    3   10 1
   7    4    5 1
   8    4   11 2
   9    5    6 1
  10    5    7 1
  11    5   26 1
  12    6    8 2
  13    7   12 1
  14    7   27 1
  15    7   28 1
  16   10   13 ar
  17   10   14 ar
  18   12   18 ar
  19   12   19 ar
  20   13   17 ar
  21   13   24 1
  22   14   15 ar
  23   14   29 1
  24   15   16 ar
  25   15   30 1
  26   16   17 ar
  27   16   31 1
  28   17   32 1
  29   18   21 ar
  30   18   33 1
  31   19   20 ar
  32   19   34 1
  33   20   22 ar
  34   20   35 1
  35   21   22 ar
  36   21   36 1
  37   22   23 1
  38   24   25 3

#	End of record

