#	Name: ASD00844786
#	Creating user name:	WinNT
#	Creation time:	15. 06. 2019 18:51

#	Modifying user name:	WinNT
#	Modification time:	15. 06. 2019 18:51

#	Program:	/corina/corina34_cracker 3.40 0067  02.08.2006

@<TRIPOS>MOLECULE
ASD00844786
  95  100    0    0    0
SMALL
NO_CHARGES


@<TRIPOS>ATOM
   1 F1             5.6879    -2.1911    -1.9601 F       
   2 C2             0.7391     1.2422    -0.3669 C.ar    
   3 C3             0.9804    -0.0957    -0.6424 C.ar    
   4 C4             0.8533    -1.0427     0.3637 C.ar    
   5 C5             0.4871    -0.6513     1.6367 C.ar    
   6 C6             0.2467     0.6831     1.9087 C.ar    
   7 C7             0.3730     1.6286     0.9081 C.ar    
   8 C8             1.1142    -2.4971     0.0677 C.3     
   9 C9             0.7835    -3.3513     1.2731 C.2     
  10 C10            0.3031    -2.9491    -1.1482 C.3     
  11 C11           -1.1563    -2.6532    -0.9167 C.2     
  12 N12           -2.0770    -3.0615    -1.8123 N.am    
  13 O13           -1.5023    -2.0477     0.0755 O.2     
  14 C14           -3.4885    -2.6828    -1.6605 C.3     
  15 C15           -4.3458    -3.9520    -1.6935 C.3     
  16 C16           -4.0395    -4.7365    -2.9714 C.3     
  17 C17           -2.5657    -5.1489    -2.9779 C.3     
  18 C18           -1.6873    -3.8886    -2.9625 C.3     
  19 N19           -4.8839    -5.9375    -3.0226 N.3     
  20 C20           -4.7032    -6.6545    -4.2925 C.3     
  21 C21           -5.5373    -7.9377    -4.2739 C.3     
  22 N22           -6.9509    -7.5970    -4.0613 N.3     
  23 C23           -7.1316    -6.8799    -2.7913 C.3     
  24 C24           -6.2976    -5.5967    -2.8100 C.3     
  25 C25           -7.7953    -8.7979    -4.1125 C.3     
  26 O26           -0.3025    -3.4616     1.8017 O.2     
  27 N27            1.9190    -3.9648     1.6469 N.am    
  28 C28            2.5896    -2.7351    -0.1582 C.ar    
  29 C29            2.9976    -3.6248     0.8277 C.ar    
  30 C30            3.4829    -2.2550    -1.0892 C.ar    
  31 C31            4.8077    -2.6599    -1.0488 C.ar    
  32 C32            5.2264    -3.5470    -0.0701 C.ar    
  33 C33            4.3304    -4.0285     0.8637 C.ar    
  34 Cl34           6.8854    -4.0554    -0.0176 Cl      
  35 C35            1.6974    -6.6237     2.3218 C.ar    
  36 C36            0.4423    -6.9322     1.8170 C.ar    
  37 C37            2.6908    -7.5843     2.3413 C.ar    
  38 C38            2.4373    -8.8534     1.8581 C.ar    
  39 C39            1.1834    -9.1670     1.3521 C.ar    
  40 C40            0.1852    -8.2054     1.3319 C.ar    
  41 O41            0.9345   -10.4157     0.8774 O.3     
  42 O42           -0.5343    -5.9874     1.7985 O.3     
  43 C43           -1.8019    -6.3750     1.2647 C.3     
  44 C44            2.0094   -11.3559     0.9297 C.3     
  45 C45           -9.2092    -8.4476    -3.6444 C.3     
  46 S46            2.0270    -5.0039     2.9318 S.o2    
  47 O47            3.3883    -4.9979     3.3393 O.2     
  48 O48            0.9534    -4.6772     3.8035 O.2     
  49 O49            1.3401    -0.4784    -1.8958 O.3     
  50 C50            1.3727     0.5377    -2.9001 C.3     
  51 C51            1.8814    -0.0596    -4.2136 C.3     
  52 F52            3.1323    -0.6501    -4.0038 F       
  53 F53            0.9787    -1.0278    -4.6661 F       
  54 H54            0.8416     1.9817    -1.1472 H       
  55 H55            0.3881    -1.3880     2.4202 H       
  56 H56           -0.0402     0.9870     2.9046 H       
  57 H57            0.1847     2.6701     1.1231 H       
  58 H58            0.6464    -2.4137    -2.0334 H       
  59 H59            0.4375    -4.0206    -1.2968 H       
  60 H60           -3.6292    -2.1715    -0.7082 H       
  61 H61           -3.7800    -2.0236    -2.4781 H       
  62 H62           -4.1167    -4.5685    -0.8244 H       
  63 H63           -5.4009    -3.6788    -1.6785 H       
  64 H64           -4.2454    -4.1108    -3.8398 H       
  65 H65           -2.3534    -5.7541    -2.0966 H       
  66 H66           -2.3538    -5.7275    -3.8770 H       
  67 H67           -1.8332    -3.3302    -3.8871 H       
  68 H68           -0.6398    -4.1745    -2.8672 H       
  69 H69           -5.0291    -6.0210    -5.1174 H       
  70 H70           -3.6507    -6.9068    -4.4211 H       
  71 H71           -5.4275    -8.4566    -5.2261 H       
  72 H72           -5.1933    -8.5833    -3.4658 H       
  73 H73           -8.1842    -6.6276    -2.6627 H       
  74 H74           -6.8057    -7.5135    -1.9664 H       
  75 H75           -6.4073    -5.0778    -1.8577 H       
  76 H76           -6.6415    -4.9512    -3.6181 H       
  77 H77           -7.8336    -9.1719    -5.1356 H       
  78 H78           -7.3764    -9.5647    -3.4608 H       
  79 H79            3.1516    -1.5641    -1.8503 H       
  80 H80            4.6636    -4.7196     1.6237 H       
  81 H81            3.6671    -7.3422     2.7347 H       
  82 H82            3.2154    -9.6022     1.8738 H       
  83 H83           -0.7911    -8.4476     0.9389 H       
  84 H84           -2.4886    -5.5296     1.3088 H       
  85 H85           -1.6789    -6.6894     0.2283 H       
  86 H86           -2.2051    -7.2016     1.8497 H       
  87 H87            2.8485   -10.9815     0.3433 H       
  88 H88            2.3220   -11.4931     1.9649 H       
  89 H89            1.6775   -12.3103     0.5209 H       
  90 H90           -9.1710    -8.0737    -2.6212 H       
  91 H91           -9.6281    -7.6808    -4.2960 H       
  92 H92           -9.8358    -9.3387    -3.6824 H       
  93 H93            0.3688     0.9359    -3.0468 H       
  94 H94            2.0392     1.3400    -2.5836 H       
  95 H95            1.9727     0.7293    -4.9602 H       
@<TRIPOS>BOND
   1    1   31 1
   2    2    3 ar
   3    2    7 ar
   4    2   54 1
   5    3    4 ar
   6    3   49 1
   7    4    5 ar
   8    4    8 1
   9    5    6 ar
  10    5   55 1
  11    6    7 ar
  12    6   56 1
  13    7   57 1
  14    8    9 1
  15    8   10 1
  16    8   28 1
  17    9   26 2
  18    9   27 am
  19   10   11 1
  20   10   58 1
  21   10   59 1
  22   11   12 am
  23   11   13 2
  24   12   14 1
  25   12   18 1
  26   14   15 1
  27   14   60 1
  28   14   61 1
  29   15   16 1
  30   15   62 1
  31   15   63 1
  32   16   17 1
  33   16   19 1
  34   16   64 1
  35   17   18 1
  36   17   65 1
  37   17   66 1
  38   18   67 1
  39   18   68 1
  40   19   20 1
  41   19   24 1
  42   20   21 1
  43   20   69 1
  44   20   70 1
  45   21   22 1
  46   21   71 1
  47   21   72 1
  48   22   23 1
  49   22   25 1
  50   23   24 1
  51   23   73 1
  52   23   74 1
  53   24   75 1
  54   24   76 1
  55   25   45 1
  56   25   77 1
  57   25   78 1
  58   27   46 am
  59   27   29 1
  60   28   29 ar
  61   28   30 ar
  62   29   33 ar
  63   30   31 ar
  64   30   79 1
  65   31   32 ar
  66   32   33 ar
  67   32   34 1
  68   33   80 1
  69   35   36 ar
  70   35   37 ar
  71   35   46 1
  72   36   42 1
  73   36   40 ar
  74   37   38 ar
  75   37   81 1
  76   38   39 ar
  77   38   82 1
  78   39   40 ar
  79   39   41 1
  80   40   83 1
  81   41   44 1
  82   42   43 1
  83   43   84 1
  84   43   85 1
  85   43   86 1
  86   44   87 1
  87   44   88 1
  88   44   89 1
  89   45   90 1
  90   45   91 1
  91   45   92 1
  92   46   47 2
  93   46   48 2
  94   49   50 1
  95   50   51 1
  96   50   93 1
  97   50   94 1
  98   51   52 1
  99   51   53 1
 100   51   95 1

#	End of record

