#	Name: ASD01914113
#	Creating user name:	WinNT
#	Creation time:	15. 06. 2019 20:02

#	Modifying user name:	WinNT
#	Modification time:	15. 06. 2019 20:02

#	Program:	/corina/corina34_cracker 3.40 0067  02.08.2006

@<TRIPOS>MOLECULE
ASD01914113
  50   51    0    0    0
SMALL
NO_CHARGES


@<TRIPOS>ATOM
   1 C1             2.8881     4.0547    -2.7435 C.ar    
   2 C2             2.4664     2.7388    -2.7011 C.ar    
   3 C3             4.7087     2.0355    -2.2238 C.ar    
   4 C4             5.1315     3.3554    -2.2667 C.ar    
   5 O5             5.6015     1.0430    -1.9696 O.3     
   6 C6             3.3729     1.7292    -2.4420 C.ar    
   7 C7             4.2202     4.3641    -2.5261 C.ar    
   8 C8             5.0954    -0.2931    -1.9405 C.3     
   9 C9             6.2216    -1.2505    -1.6468 C.ar    
  10 N10            5.9715    -2.5438    -1.5746 N.ar    
  11 C11            6.9191    -3.4224    -1.3208 C.ar    
  12 C12            8.2354    -3.0073    -1.1170 C.ar    
  13 C13            8.5321    -1.6406    -1.1872 C.ar    
  14 C14            7.5018    -0.7593    -1.4627 C.ar    
  15 C15            9.2990    -3.9936    -0.8311 C.2     
  16 N16            9.0081    -5.1200    -0.1505 N.am    
  17 C17           10.0495    -6.1233     0.0845 C.3     
  18 O18           10.4357    -3.7887    -1.2098 O.2     
  19 C19           10.1020    -7.0909    -1.0996 C.3     
  20 C20            8.8470    -7.9661    -1.0990 C.3     
  21 F21            4.6305     5.6506    -2.5683 F       
  22 C22            7.6507    -5.3411     0.3542 C.3     
  23 C23           11.4037    -5.4273     0.2348 C.3     
  24 C24           10.1688    -6.2960    -2.4052 C.3     
  25 C25           11.3426    -7.9781    -0.9786 C.3     
  26 H26            2.1785     4.8420    -2.9507 H       
  27 H27            1.4269     2.4998    -2.8706 H       
  28 H28            6.1707     3.5960    -2.0974 H       
  29 H29            3.0420     0.7017    -2.4089 H       
  30 H30            4.3354    -0.3769    -1.1637 H       
  31 H31            4.6550    -0.5360    -2.9075 H       
  32 H32            6.6752    -4.4733    -1.2696 H       
  33 H33            9.5401    -1.2841    -1.0346 H       
  34 H34            7.6932     0.3018    -1.5246 H       
  35 H35            9.8221    -6.6763     0.9958 H       
  36 H36            7.9656    -7.3376    -1.2263 H       
  37 H37            8.9036    -8.6829    -1.9182 H       
  38 H38            8.7778    -8.5014    -0.1520 H       
  39 H39            7.1004    -5.9692    -0.3463 H       
  40 H40            7.6998    -5.8355     1.3243 H       
  41 H41            7.1419    -4.3829     0.4600 H       
  42 H42           11.6948    -4.9890    -0.7198 H       
  43 H43           11.3271    -4.6420     0.9869 H       
  44 H44           12.1538    -6.1550     0.5443 H       
  45 H45           11.1069    -5.7426    -2.4460 H       
  46 H46           10.1141    -6.9813    -3.2510 H       
  47 H47            9.3329    -5.5978    -2.4486 H       
  48 H48           11.2950    -8.5444    -0.0484 H       
  49 H49           11.3800    -8.6674    -1.8221 H       
  50 H50           12.2366    -7.3545    -0.9790 H       
@<TRIPOS>BOND
   1    1    2 ar
   2    1    7 ar
   3    1   26 1
   4    2    6 ar
   5    2   27 1
   6    3    4 ar
   7    3    5 1
   8    3    6 ar
   9    4    7 ar
  10    4   28 1
  11    5    8 1
  12    6   29 1
  13    7   21 1
  14    8    9 1
  15    8   30 1
  16    8   31 1
  17    9   10 ar
  18    9   14 ar
  19   10   11 ar
  20   11   12 ar
  21   11   32 1
  22   12   13 ar
  23   12   15 1
  24   13   14 ar
  25   13   33 1
  26   14   34 1
  27   15   16 am
  28   15   18 2
  29   16   17 1
  30   16   22 1
  31   17   19 1
  32   17   23 1
  33   17   35 1
  34   19   24 1
  35   19   25 1
  36   19   20 1
  37   20   36 1
  38   20   37 1
  39   20   38 1
  40   22   39 1
  41   22   40 1
  42   22   41 1
  43   23   42 1
  44   23   43 1
  45   23   44 1
  46   24   45 1
  47   24   46 1
  48   24   47 1
  49   25   48 1
  50   25   49 1
  51   25   50 1

#	End of record

