#	Name: ASD03540048
#	Creating user name:	WinNT
#	Creation time:	15. 06. 2019 20:42

#	Modifying user name:	WinNT
#	Modification time:	15. 06. 2019 20:42

#	Program:	/corina/corina34_cracker 3.40 0067  02.08.2006

@<TRIPOS>MOLECULE
ASD03540048
  58   61    0    0    0
SMALL
NO_CHARGES


@<TRIPOS>ATOM
   1 C1            -0.0179     1.4698     0.0101 C.2     
   2 C2             0.0021    -0.0041     0.0020 C.ar    
   3 C3             1.2235    -0.6928    -0.0133 C.ar    
   4 C4             1.2301    -2.0794    -0.0209 C.ar    
   5 C5             0.0386    -2.7775    -0.0138 C.ar    
   6 C6            -1.1701    -2.1010     0.0014 C.ar    
   7 C7            -1.1958    -0.7233     0.0154 C.ar    
   8 O8             1.0260     2.0916     0.0035 O.2     
   9 O9            -1.1939     2.1276     0.0193 O.3     
  10 O10            2.3931    -0.0059    -0.0212 O.3     
  11 C11            3.5972    -0.7751    -0.0368 C.3     
  12 C12            0.0534    -4.2844    -0.0231 C.3     
  13 C13           -1.0887    -5.0144     1.9815 C.2     
  14 N14           -1.1394    -5.4763     3.2619 N.am    
  15 C15            0.0540    -5.7005     3.9052 C.2     
  16 C16            1.2583    -5.4682     3.2810 C.2     
  17 C17            1.2548    -4.9931     1.9630 C.2     
  18 N18            0.0713    -4.7811     1.3551 N.am    
  19 S19           -0.3587    -6.2857     5.5227 S.3     
  20 C20           -2.2552    -5.7487     3.9987 C.2     
  21 C21           -2.1086    -6.1993     5.2524 C.2     
  22 O22            2.3028    -4.7752     1.3775 O.2     
  23 O23           -2.1297    -4.8123     1.3871 O.2     
  24 C24            2.5573    -5.7193     4.0025 C.3     
  25 C25           -3.1731    -6.5480     6.2019 C.2     
  26 N26           -2.8577    -6.9898     7.4355 N.am    
  27 O27           -4.3400    -6.4381     5.8750 O.2     
  28 C28           -3.9197    -7.3376     8.3828 C.3     
  29 C29           -3.3051    -7.7999     9.6789 C.ar    
  30 C30           -3.0309    -6.8850    10.6783 C.ar    
  31 C31           -2.4678    -7.3079    11.8674 C.ar    
  32 C32           -2.1783    -8.6484    12.0576 C.ar    
  33 C33           -2.4534    -9.5639    11.0559 C.ar    
  34 C34           -3.0214    -9.1394     9.8696 C.ar    
  35 F35           -1.6274    -9.0629    13.2194 F       
  36 C36           -1.1376     3.5785     0.0269 C.3     
  37 H37            2.1683    -2.6142    -0.0327 H       
  38 H38           -2.0966    -2.6560     0.0065 H       
  39 H39           -2.1405    -0.2001     0.0321 H       
  40 H40            4.4566    -0.1047    -0.0418 H       
  41 H41            3.6354    -1.4083     0.8496 H       
  42 H42            3.6181    -1.3992    -0.9302 H       
  43 H43           -0.8379    -4.6534    -0.5307 H       
  44 H44            0.9419    -4.6358    -0.5475 H       
  45 H45           -3.2395    -5.6036     3.5787 H       
  46 H46            2.8768    -6.7469     3.8286 H       
  47 H47            3.3185    -5.0341     3.6295 H       
  48 H48            2.4162    -5.5587     5.0713 H       
  49 H49           -1.9274    -7.0774     7.6962 H       
  50 H50           -4.5425    -6.4625     8.5679 H       
  51 H51           -4.5315    -8.1373     7.9652 H       
  52 H52           -3.2565    -5.8394    10.5296 H       
  53 H53           -2.2533    -6.5929    12.6479 H       
  54 H54           -2.2279   -10.6098    11.2031 H       
  55 H55           -3.2398    -9.8539     9.0897 H       
  56 H56           -2.1504     3.9814     0.0339 H       
  57 H57           -0.6058     3.9168     0.9162 H       
  58 H58           -0.6143     3.9265    -0.8637 H       
@<TRIPOS>BOND
   1    1    2 1
   2    1    8 2
   3    1    9 1
   4    2    3 ar
   5    2    7 ar
   6    3    4 ar
   7    3   10 1
   8    4    5 ar
   9    4   37 1
  10    5    6 ar
  11    5   12 1
  12    6    7 ar
  13    6   38 1
  14    7   39 1
  15    9   36 1
  16   10   11 1
  17   11   40 1
  18   11   41 1
  19   11   42 1
  20   12   18 1
  21   12   43 1
  22   12   44 1
  23   13   14 am
  24   13   18 am
  25   13   23 2
  26   14   15 1
  27   14   20 1
  28   15   16 2
  29   15   19 1
  30   16   17 1
  31   16   24 1
  32   17   18 am
  33   17   22 2
  34   19   21 1
  35   20   21 2
  36   20   45 1
  37   21   25 1
  38   24   46 1
  39   24   47 1
  40   24   48 1
  41   25   26 am
  42   25   27 2
  43   26   28 1
  44   26   49 1
  45   28   29 1
  46   28   50 1
  47   28   51 1
  48   29   30 ar
  49   29   34 ar
  50   30   31 ar
  51   30   52 1
  52   31   32 ar
  53   31   53 1
  54   32   33 ar
  55   32   35 1
  56   33   34 ar
  57   33   54 1
  58   34   55 1
  59   36   56 1
  60   36   57 1
  61   36   58 1

#	End of record

