#	Name: ASD01150284
#	Creating user name:	WinNT
#	Creation time:	15. 06. 2019 19:03

#	Modifying user name:	WinNT
#	Modification time:	15. 06. 2019 19:03

#	Program:	/corina/corina34_cracker 3.40 0067  02.08.2006

@<TRIPOS>MOLECULE
ASD01150284
  69   72    0    0    0
SMALL
NO_CHARGES


@<TRIPOS>ATOM
   1 C1            -0.6693     1.3562     0.7749 C.2     
   2 N2            -0.5136     0.0728     0.5262 N.2     
   3 C3            -1.6629    -0.5763     0.7316 C.2     
   4 C4            -2.6099     0.3556     1.1369 C.2     
   5 N5            -1.9514     1.5870     1.1639 N.pl3   
   6 N6             0.3131     2.3131     0.6641 N.3     
   7 C7             1.5818     1.7167     0.2254 C.3     
   8 C8            -0.1027     3.3919    -0.2421 C.3     
   9 C9            -2.5075     2.8238     1.5157 C.ar    
  10 N10           -1.8737    -1.9411     0.5682 N.am    
  11 C11           -3.9594     0.1080     1.4601 C.2     
  12 O12           -4.7607     1.1266     1.8397 O.3     
  13 O13           -4.4028    -1.0244     1.3971 O.2     
  14 C14           -6.1170     0.8032     2.1526 C.3     
  15 C15           -6.1489    -0.1979     3.3092 C.3     
  16 C16           -6.8640     2.0753     2.5584 C.3     
  17 C17           -6.7903     0.1860     0.9251 C.3     
  18 C18           -2.0587     3.4918     2.6472 C.ar    
  19 C19           -2.6090     4.7109     2.9914 C.ar    
  20 C20           -3.6059     5.2663     2.2105 C.ar    
  21 C21           -4.0550     4.6035     1.0830 C.ar    
  22 C22           -3.5047     3.3868     0.7304 C.ar    
  23 C23           -0.8619    -2.7361     0.1675 C.2     
  24 C24           -1.0570    -4.2290     0.1024 C.3     
  25 O25            0.2056    -2.2501    -0.1407 O.2     
  26 C26           -2.0688    -4.5711    -0.9608 C.ar    
  27 C27            0.2857    -4.9246    -0.2025 C.3     
  28 C28            0.8292    -5.3286     1.1905 C.3     
  29 C29           -0.4527    -5.7586     1.9460 C.3     
  30 C30           -1.5278    -4.7591     1.4681 C.3     
  31 C31           -2.5710    -3.5786    -1.7816 C.ar    
  32 C32           -3.4990    -3.8918    -2.7569 C.ar    
  33 C33           -3.9252    -5.1989    -2.9115 C.ar    
  34 C34           -3.4223    -6.1918    -2.0897 C.ar    
  35 C35           -2.4901    -5.8783    -1.1186 C.ar    
  36 Cl36          -5.0912    -5.5929    -4.1359 Cl      
  37 H37            1.4438     1.2433    -0.7467 H       
  38 H38            2.3409     2.4949     0.1461 H       
  39 H39            1.9022     0.9693     0.9513 H       
  40 H40           -1.0069     3.8625     0.1439 H       
  41 H41            0.6921     4.1346    -0.3115 H       
  42 H42           -0.3017     2.9792    -1.2311 H       
  43 H43           -2.7491    -2.3209     0.7427 H       
  44 H44           -5.6692     0.2418     4.1836 H       
  45 H45           -7.1834    -0.4445     3.5478 H       
  46 H46           -5.6167    -1.1041     3.0200 H       
  47 H47           -6.8413     2.7885     1.7345 H       
  48 H48           -7.8986     1.8286     2.7970 H       
  49 H49           -6.3843     2.5150     3.4329 H       
  50 H50           -6.2581    -0.7202     0.6360 H       
  51 H51           -7.8248    -0.0606     1.1638 H       
  52 H52           -6.7676     0.8992     0.1012 H       
  53 H53           -1.2803     3.0584     3.2577 H       
  54 H54           -2.2605     5.2309     3.8715 H       
  55 H55           -4.0349     6.2196     2.4819 H       
  56 H56           -4.8341     5.0397     0.4753 H       
  57 H57           -3.8557     2.8697    -0.1505 H       
  58 H58            0.1259    -5.8082    -0.8206 H       
  59 H59            0.9707    -4.2333    -0.6935 H       
  60 H60            1.5261    -6.1624     1.1063 H       
  61 H61            1.3006    -4.4779     1.6827 H       
  62 H62           -0.7318    -6.7769     1.6749 H       
  63 H63           -0.3067    -5.6760     3.0230 H       
  64 H64           -1.6147    -3.9366     2.1780 H       
  65 H65           -2.4875    -5.2650     1.3627 H       
  66 H66           -2.2385    -2.5583    -1.6606 H       
  67 H67           -3.8915    -3.1162    -3.3978 H       
  68 H68           -3.7546    -7.2123    -2.2100 H       
  69 H69           -2.0974    -6.6533    -0.4770 H       
@<TRIPOS>BOND
   1    1    2 2
   2    1    6 1
   3    1    5 1
   4    2    3 1
   5    3    4 2
   6    3   10 1
   7    4    5 1
   8    4   11 1
   9    5    9 1
  10    6    7 1
  11    6    8 1
  12    7   37 1
  13    7   38 1
  14    7   39 1
  15    8   40 1
  16    8   41 1
  17    8   42 1
  18    9   18 ar
  19    9   22 ar
  20   10   23 am
  21   10   43 1
  22   11   12 1
  23   11   13 2
  24   12   14 1
  25   14   15 1
  26   14   16 1
  27   14   17 1
  28   15   44 1
  29   15   45 1
  30   15   46 1
  31   16   47 1
  32   16   48 1
  33   16   49 1
  34   17   50 1
  35   17   51 1
  36   17   52 1
  37   18   19 ar
  38   18   53 1
  39   19   20 ar
  40   19   54 1
  41   20   21 ar
  42   20   55 1
  43   21   22 ar
  44   21   56 1
  45   22   57 1
  46   23   24 1
  47   23   25 2
  48   24   26 1
  49   24   27 1
  50   24   30 1
  51   26   31 ar
  52   26   35 ar
  53   27   28 1
  54   27   58 1
  55   27   59 1
  56   28   29 1
  57   28   60 1
  58   28   61 1
  59   29   30 1
  60   29   62 1
  61   29   63 1
  62   30   64 1
  63   30   65 1
  64   31   32 ar
  65   31   66 1
  66   32   33 ar
  67   32   67 1
  68   33   34 ar
  69   33   36 1
  70   34   35 ar
  71   34   68 1
  72   35   69 1

#	End of record

