#	Name: ASD05430331
#	Creating user name:	WinNT
#	Creation time:	15. 06. 2019 21:00

#	Modifying user name:	WinNT
#	Modification time:	15. 06. 2019 21:00

#	Program:	/corina/corina34_cracker 3.40 0067  02.08.2006

@<TRIPOS>MOLECULE
ASD05430331
  35   36    0    0    0
SMALL
NO_CHARGES


@<TRIPOS>ATOM
   1 C1            -0.0168     1.3884     0.0097 C.ar    
   2 C2             0.0021    -0.0041     0.0020 C.ar    
   3 C3            -1.1916    -0.7102     0.0096 C.ar    
   4 C4            -2.3954    -0.0318     0.0247 C.ar    
   5 C5            -2.4137     1.3509     0.0323 C.ar    
   6 C6            -1.2281     2.0614     0.0306 C.ar    
   7 C7            -3.7297     2.0850     0.0487 C.3     
   8 C8            -4.5383     1.7102    -1.1949 C.3     
   9 C9            -4.5146     1.6968     1.3034 C.3     
  10 N10            1.2260    -0.6911    -0.0138 N.pl3   
  11 C11            2.2653    -0.4693    -0.8592 C.2     
  12 N12            3.2252    -1.3039    -0.5660 N.2     
  13 C13            2.8428    -2.0779     0.4604 C.2     
  14 C14            1.6000    -1.7086     0.8250 C.2     
  15 C15            3.6640    -3.1681     1.0992 C.3     
  16 O16            1.1502     2.0857     0.0023 O.3     
  17 C17            1.0540     3.5115     0.0109 C.3     
  18 H18           -1.1803    -1.7902     0.0033 H       
  19 H19           -3.3242    -0.5829     0.0302 H       
  20 H20           -1.2458     3.1412     0.0366 H       
  21 H21           -3.5464     3.1595     0.0528 H       
  22 H22           -4.7216     0.6358    -1.1989 H       
  23 H23           -5.4902     2.2412    -1.1830 H       
  24 H24           -3.9792     1.9868    -2.0888 H       
  25 H25           -3.9385     1.9638     2.1894 H       
  26 H26           -5.4664     2.2278     1.3153 H       
  27 H27           -4.6979     0.6224     1.2994 H       
  28 H28            2.2929     0.2731    -1.6431 H       
  29 H29            1.0086    -2.1370     1.6207 H       
  30 H30            4.2538    -2.7485     1.9142 H       
  31 H31            3.0015    -3.9403     1.4902 H       
  32 H32            4.3308    -3.6040     0.3552 H       
  33 H33            2.0548     3.9432     0.0036 H       
  34 H34            0.5084     3.8441    -0.8722 H       
  35 H35            0.5254     3.8346     0.9077 H       
@<TRIPOS>BOND
   1    1    2 ar
   2    1   16 1
   3    1    6 ar
   4    2    3 ar
   5    2   10 1
   6    3    4 ar
   7    3   18 1
   8    4    5 ar
   9    4   19 1
  10    5    6 ar
  11    5    7 1
  12    6   20 1
  13    7    8 1
  14    7    9 1
  15    7   21 1
  16    8   22 1
  17    8   23 1
  18    8   24 1
  19    9   25 1
  20    9   26 1
  21    9   27 1
  22   10   11 1
  23   10   14 1
  24   11   12 2
  25   11   28 1
  26   12   13 1
  27   13   14 2
  28   13   15 1
  29   14   29 1
  30   15   30 1
  31   15   31 1
  32   15   32 1
  33   16   17 1
  34   17   33 1
  35   17   34 1
  36   17   35 1

#	End of record

