#	Name: ASD01140444
#	Creating user name:	WinNT
#	Creation time:	15. 06. 2019 19:00

#	Modifying user name:	WinNT
#	Modification time:	15. 06. 2019 19:00

#	Program:	/corina/corina34_cracker 3.40 0067  02.08.2006

@<TRIPOS>MOLECULE
ASD01140444
  38   40    0    0    0
SMALL
NO_CHARGES


@<TRIPOS>ATOM
   1 C1            -0.1022     1.5577    -0.1845 C.2     
   2 C2            -0.2083     0.2035    -0.1178 C.2     
   3 C3             0.9493    -0.5788     0.0415 C.2     
   4 C4             2.1624     0.0102     0.1280 C.2     
   5 C5             1.1704     2.1575    -0.0927 C.2     
   6 N6             1.5597     3.4239    -0.1264 N.2     
   7 N7             2.2816     1.3699     0.0627 N.pl3   
   8 C8             3.3633     2.2030     0.1223 C.2     
   9 C9             2.8945     3.4767     0.0027 C.2     
  10 C10            3.7187     4.7109     0.0132 C.ar    
  11 C11            3.2878     5.8327     0.7188 C.ar    
  12 C12            4.0566     6.9786     0.7270 C.ar    
  13 C13            5.2558     7.0160     0.0352 C.ar    
  14 C14            5.6896     5.9021    -0.6689 C.ar    
  15 C15            4.9279     4.7490    -0.6776 C.ar    
  16 C16            4.8032     1.7907     0.2887 C.3     
  17 C17            5.3841     1.4404    -1.0570 C.2     
  18 N18            6.6677     1.0409    -1.1535 N.am    
  19 O19            4.6966     1.5180    -2.0531 O.2     
  20 C20            7.2325     0.7004    -2.4617 C.3     
  21 C21            7.4982     0.9471     0.0497 C.3     
  22 F22            6.0050     8.1402     0.0457 F       
  23 F23            0.8482    -1.9243     0.1087 F       
  24 F24            6.8601     5.9430    -1.3423 F       
  25 H25           -0.9844     2.1678    -0.3112 H       
  26 H26           -1.1770    -0.2689    -0.1864 H       
  27 H27            3.0456    -0.5992     0.2502 H       
  28 H28            2.3527     5.8054     1.2585 H       
  29 H29            3.7223     7.8480     1.2736 H       
  30 H30            5.2676     3.8803    -1.2219 H       
  31 H31            5.3687     2.6138     0.7255 H       
  32 H32            4.8589     0.9226     0.9456 H       
  33 H33            7.6668     1.5923    -2.9132 H       
  34 H34            8.0060    -0.0575    -2.3374 H       
  35 H35            6.4447     0.3129    -3.1078 H       
  36 H36            6.9103     1.2377     0.9205 H       
  37 H37            7.8461    -0.0786     0.1721 H       
  38 H38            8.3559     1.6126    -0.0481 H       
@<TRIPOS>BOND
   1    1    2 2
   2    1    5 1
   3    1   25 1
   4    2    3 1
   5    2   26 1
   6    3    4 2
   7    3   23 1
   8    4    7 1
   9    4   27 1
  10    5    7 1
  11    5    6 2
  12    6    9 1
  13    7    8 1
  14    8    9 2
  15    8   16 1
  16    9   10 1
  17   10   11 ar
  18   10   15 ar
  19   11   12 ar
  20   11   28 1
  21   12   13 ar
  22   12   29 1
  23   13   14 ar
  24   13   22 1
  25   14   15 ar
  26   14   24 1
  27   15   30 1
  28   16   17 1
  29   16   31 1
  30   16   32 1
  31   17   18 am
  32   17   19 2
  33   18   20 1
  34   18   21 1
  35   20   33 1
  36   20   34 1
  37   20   35 1
  38   21   36 1
  39   21   37 1
  40   21   38 1

#	End of record

