#	Name: ASD03930267
#	Creating user name:	WinNT
#	Creation time:	15. 06. 2019 20:47

#	Modifying user name:	WinNT
#	Modification time:	15. 06. 2019 20:47

#	Program:	/corina/corina34_cracker 3.40 0067  02.08.2006

@<TRIPOS>MOLECULE
ASD03930267
  46   50    0    0    0
SMALL
NO_CHARGES


@<TRIPOS>ATOM
   1 O1             0.0021    -0.0041     0.0020 O.2     
   2 N2            -0.0144     1.2138     0.0087 N.pl3   
   3 O3             1.0320     1.8371     0.0021 O.2     
   4 C4            -1.3063     1.9364     0.0188 C.2     
   5 C5            -1.4650     3.2737     0.0214 C.2     
   6 N6            -2.8128     3.5126     0.0313 N.pl3   
   7 C7            -3.4630     4.8254     0.0370 C.3     
   8 C8            -3.6997     5.2835    -1.4035 C.3     
   9 N9            -4.3499     6.5963    -1.3978 N.am    
  10 C10           -5.8103     6.6874    -1.3811 C.3     
  11 O11           -6.2437     7.8081    -0.6121 O.3     
  12 C12           -5.6409     9.0011    -0.8447 C.ar    
  13 C13           -6.3325    10.1906    -0.7103 C.ar    
  14 C14           -5.6764    11.3944    -0.9434 C.ar    
  15 C15           -6.3911    12.6905    -0.8231 C.2     
  16 O16           -7.5044    12.7736    -0.3422 O.2     
  17 N17           -5.7237    13.7707    -1.2823 N.am    
  18 C18           -6.1047    15.1807    -1.1929 C.3     
  19 C19           -4.7877    15.9764    -1.1264 C.3     
  20 C20           -3.6979    15.0151    -1.6380 C.3     
  21 C21           -4.4289    13.7055    -1.9849 C.3     
  22 O22           -3.6783    12.5981    -1.4818 O.3     
  23 C23           -4.3183    11.4161    -1.2975 C.ar    
  24 C24           -3.6313    10.2219    -1.4468 C.ar    
  25 C25           -4.2901     9.0171    -1.2279 C.ar    
  26 C26           -3.5992     7.7205    -1.4023 C.2     
  27 O27           -2.3936     7.6684    -1.5492 O.2     
  28 C28           -3.4312     2.3121     0.0344 C.2     
  29 N29           -2.5240     1.3741     0.0210 N.2     
  30 H30           -0.6798     4.0152     0.0166 H       
  31 H31           -4.4180     4.7556     0.5577 H       
  32 H32           -2.8230     5.5456     0.5468 H       
  33 H33           -2.7447     5.3533    -1.9242 H       
  34 H34           -4.3397     4.5633    -1.9132 H       
  35 H35           -6.1742     6.7923    -2.4032 H       
  36 H36           -6.2210     5.7754    -0.9477 H       
  37 H37           -7.3746    10.1849    -0.4267 H       
  38 H38           -6.6745    15.4719    -2.0753 H       
  39 H39           -6.6932    15.3537    -0.2919 H       
  40 H40           -4.8459    16.8558    -1.7678 H       
  41 H41           -4.5774    16.2720    -0.0985 H       
  42 H42           -3.2199    15.4265    -2.5270 H       
  43 H43           -2.9564    14.8375    -0.8589 H       
  44 H44           -4.5807    13.6251    -3.0613 H       
  45 H45           -2.5898    10.2269    -1.7325 H       
  46 H46           -4.4996     2.1544     0.0419 H       
@<TRIPOS>BOND
   1    1    2 2
   2    2    3 2
   3    2    4 1
   4    4   29 1
   5    4    5 2
   6    5    6 1
   7    5   30 1
   8    6    7 1
   9    6   28 1
  10    7    8 1
  11    7   31 1
  12    7   32 1
  13    8    9 1
  14    8   33 1
  15    8   34 1
  16    9   26 am
  17    9   10 1
  18   10   11 1
  19   10   35 1
  20   10   36 1
  21   11   12 1
  22   12   25 ar
  23   12   13 ar
  24   13   14 ar
  25   13   37 1
  26   14   23 ar
  27   14   15 1
  28   15   16 2
  29   15   17 am
  30   17   21 1
  31   17   18 1
  32   18   19 1
  33   18   38 1
  34   18   39 1
  35   19   20 1
  36   19   40 1
  37   19   41 1
  38   20   21 1
  39   20   42 1
  40   20   43 1
  41   21   22 1
  42   21   44 1
  43   22   23 1
  44   23   24 ar
  45   24   25 ar
  46   24   45 1
  47   25   26 1
  48   26   27 2
  49   28   29 2
  50   28   46 1

#	End of record

