#	Name: ASD01900342
#	Creating user name:	WinNT
#	Creation time:	15. 06. 2019 19:51

#	Modifying user name:	WinNT
#	Modification time:	15. 06. 2019 19:51

#	Program:	/corina/corina34_cracker 3.40 0067  02.08.2006

@<TRIPOS>MOLECULE
ASD01900342
  48   51    0    0    0
SMALL
NO_CHARGES


@<TRIPOS>ATOM
   1 C1            -0.0168     1.3891     0.0097 C.ar    
   2 C2             0.0021    -0.0041     0.0020 C.ar    
   3 C3             1.2224    -0.6606    -0.0132 C.ar    
   4 C4             2.3820     0.0992    -0.0202 C.ar    
   5 C5             2.2884     1.4815    -0.0119 C.ar    
   6 N6             1.1169     2.0792     0.0026 N.ar    
   7 C7            -1.3131     2.1060     0.0197 C.2     
   8 O8            -2.3544     1.4790     0.0212 O.2     
   9 N9            -1.3378     3.4535     0.0271 N.am    
  10 N10           -4.0866     5.7298     0.0525 N.am    
  11 C11           -2.7427     5.4762     0.0448 C.2     
  12 C12           -2.5683     4.1341     0.0367 C.2     
  13 C13           -3.8517     3.5436     0.0395 C.2     
  14 C14           -4.7569     4.5428     0.0492 C.2     
  15 S15           -4.7846     7.2314     0.0702 S.o2    
  16 O16           -6.0849     7.0631     0.6180 O.2     
  17 O17           -3.8183     8.1166     0.6197 O.2     
  18 C18           -6.1811     7.4127    -2.2718 C.ar    
  19 C19           -5.0109     7.7211    -1.6072 C.ar    
  20 C20           -4.0145     8.4215    -2.2738 C.ar    
  21 C21           -4.2324     8.7876    -3.5900 C.ar    
  22 C22           -5.4354     8.4436    -4.1975 C.ar    
  23 N23           -6.3618     7.7751    -3.5276 N.ar    
  24 O24           -6.1775     8.3285    -8.2399 O.3     
  25 C25           -7.2296     8.8172    -7.4036 C.3     
  26 C26           -6.9915     8.3476    -5.9660 C.3     
  27 N27           -5.6676     8.8050    -5.5195 N.3     
  28 C28           -4.6122     8.2851    -6.4010 C.3     
  29 C29           -4.8742     8.7554    -7.8342 C.3     
  30 H30           -0.9212    -0.5644     0.0082 H       
  31 H31            1.2690    -1.7395    -0.0191 H       
  32 H32            3.3489    -0.3818    -0.0317 H       
  33 H33            3.1898     2.0763    -0.0170 H       
  34 H34           -0.5068     3.9539     0.0259 H       
  35 H35           -1.9574     6.2177     0.0448 H       
  36 H36           -4.0681     2.4856     0.0351 H       
  37 H37           -5.8302     4.4231     0.0537 H       
  38 H38           -6.9569     6.8641    -1.7585 H       
  39 H39           -3.0903     8.6752    -1.7759 H       
  40 H40           -3.4788     9.3334    -4.1382 H       
  41 H41           -7.2419     9.9068    -7.4333 H       
  42 H42           -8.1855     8.4321    -7.7587 H       
  43 H43           -7.7595     8.7649    -5.3149 H       
  44 H44           -7.0327     7.2591    -5.9272 H       
  45 H45           -3.6434     8.6569    -6.0673 H       
  46 H46           -4.6153     7.1956    -6.3691 H       
  47 H47           -4.1265     8.3255    -8.5007 H       
  48 H48           -4.8179     9.8431    -7.8764 H       
@<TRIPOS>BOND
   1    1    2 ar
   2    1    6 ar
   3    1    7 1
   4    2    3 ar
   5    2   30 1
   6    3    4 ar
   7    3   31 1
   8    4    5 ar
   9    4   32 1
  10    5    6 ar
  11    5   33 1
  12    7    8 2
  13    7    9 am
  14    9   12 1
  15    9   34 1
  16   10   11 1
  17   10   14 1
  18   10   15 am
  19   11   12 2
  20   11   35 1
  21   12   13 1
  22   13   14 2
  23   13   36 1
  24   14   37 1
  25   15   16 2
  26   15   17 2
  27   15   19 1
  28   18   19 ar
  29   18   23 ar
  30   18   38 1
  31   19   20 ar
  32   20   21 ar
  33   20   39 1
  34   21   22 ar
  35   21   40 1
  36   22   23 ar
  37   22   27 1
  38   24   25 1
  39   24   29 1
  40   25   26 1
  41   25   41 1
  42   25   42 1
  43   26   27 1
  44   26   43 1
  45   26   44 1
  46   27   28 1
  47   28   29 1
  48   28   45 1
  49   28   46 1
  50   29   47 1
  51   29   48 1

#	End of record

