#	Name: ASD01814594
#	Creating user name:	WinNT
#	Creation time:	15. 06. 2019 19:32

#	Modifying user name:	WinNT
#	Modification time:	15. 06. 2019 19:32

#	Program:	/corina/corina34_cracker 3.40 0067  02.08.2006

@<TRIPOS>MOLECULE
ASD01814594
  49   52    0    0    0
SMALL
NO_CHARGES


@<TRIPOS>ATOM
   1 C1             0.3181     1.7694    -0.5237 C.2     
   2 C2             0.2556     0.3766    -0.3819 C.2     
   3 C3             1.4117    -0.3465    -0.3394 C.2     
   4 C4             2.6456     0.3176    -0.4386 C.2     
   5 N5             2.6772     1.6788    -0.5760 N.am    
   6 C6             1.5153     2.3910    -0.6176 C.2     
   7 C7             3.8351    -0.4232    -0.3950 C.2     
   8 C8             5.0391     0.2121    -0.4901 C.2     
   9 C9             5.0677     1.6119    -0.6319 C.2     
  10 C10            3.8545     2.3289    -0.6720 C.2     
  11 O11            3.8699     3.5420    -0.7950 O.2     
  12 C12            6.3467     2.3179    -0.7355 C.2     
  13 O13            6.3673     3.6598    -0.8712 O.3     
  14 O14            7.3904     1.6941    -0.6992 O.2     
  15 C15            3.7841    -1.9217    -0.2428 C.3     
  16 N16            3.8522    -2.5512    -1.5683 N.3     
  17 C17            4.1692    -3.9784    -1.4566 C.3     
  18 C18            4.1382    -4.6333    -2.8126 C.ar    
  19 C19            3.5167    -4.0421    -3.8920 C.ar    
  20 C20            2.8374    -2.7016    -3.7771 C.3     
  21 C21            2.5923    -2.3653    -2.3058 C.3     
  22 C22            4.7559    -5.8657    -2.9649 C.ar    
  23 C23            4.7497    -6.5031    -4.1895 C.ar    
  24 C24            4.1241    -5.9112    -5.2705 C.ar    
  25 C25            3.5096    -4.6838    -5.1209 C.ar    
  26 C26            5.5644    -4.1398    -0.8496 C.3     
  27 C27            6.5879    -3.4117    -1.7232 C.3     
  28 H28           -0.5931     2.3478    -0.5626 H       
  29 H29           -0.7002    -0.1204    -0.3065 H       
  30 H30            1.3785    -1.4205    -0.2301 H       
  31 H31            1.5516     3.4649    -0.7264 H       
  32 H32            5.9591    -0.3526    -0.4565 H       
  33 H33            7.2353     4.0813    -0.9358 H       
  34 H34            4.6281    -2.2544     0.3613 H       
  35 H35            2.8525    -2.2056     0.2469 H       
  36 H36            3.4374    -4.4598    -0.8078 H       
  37 H37            3.4716    -1.9351    -4.2226 H       
  38 H38            1.8843    -2.7324    -4.3050 H       
  39 H39            1.8292    -3.0297    -1.9005 H       
  40 H40            2.2651    -1.3294    -2.2164 H       
  41 H41            5.2448    -6.3292    -2.1208 H       
  42 H42            5.2332    -7.4622    -4.3027 H       
  43 H43            4.1162    -6.4072    -6.2298 H       
  44 H44            3.0206    -4.2213    -5.9655 H       
  45 H45            5.5754    -3.7147     0.1540 H       
  46 H46            5.8181    -5.1986    -0.7985 H       
  47 H47            6.2816    -2.3737    -1.8533 H       
  48 H48            7.5652    -3.4445    -1.2417 H       
  49 H49            6.6460    -3.8981    -2.6969 H       
@<TRIPOS>BOND
   1    1    2 1
   2    1    6 2
   3    1   28 1
   4    2    3 2
   5    2   29 1
   6    3    4 1
   7    3   30 1
   8    4    5 1
   9    4    7 2
  10    5    6 1
  11    5   10 am
  12    6   31 1
  13    7    8 1
  14    7   15 1
  15    8    9 2
  16    8   32 1
  17    9   10 1
  18    9   12 1
  19   10   11 2
  20   12   13 1
  21   12   14 2
  22   13   33 1
  23   15   16 1
  24   15   34 1
  25   15   35 1
  26   16   17 1
  27   16   21 1
  28   17   18 1
  29   17   26 1
  30   17   36 1
  31   18   19 ar
  32   18   22 ar
  33   19   20 1
  34   19   25 ar
  35   20   21 1
  36   20   37 1
  37   20   38 1
  38   21   39 1
  39   21   40 1
  40   22   23 ar
  41   22   41 1
  42   23   24 ar
  43   23   42 1
  44   24   25 ar
  45   24   43 1
  46   25   44 1
  47   26   27 1
  48   26   45 1
  49   26   46 1
  50   27   47 1
  51   27   48 1
  52   27   49 1

#	End of record

