#	Name: ASD03240637
#	Creating user name:	WinNT
#	Creation time:	15. 06. 2019 20:35

#	Modifying user name:	WinNT
#	Modification time:	15. 06. 2019 20:35

#	Program:	/corina/corina34_cracker 3.40 0067  02.08.2006

@<TRIPOS>MOLECULE
ASD03240637
  74   80    0    0    0
SMALL
NO_CHARGES


@<TRIPOS>ATOM
   1 C1             0.0876     1.0794    -0.5259 C.ar    
   2 C2             0.1871    -0.2903    -0.3942 C.ar    
   3 N3             1.3513    -0.8686    -0.1675 N.ar    
   4 C4             2.4717    -0.1680    -0.0558 C.ar    
   5 C5             2.4472     1.2186    -0.1922 C.ar    
   6 C6             1.2350     1.8553    -0.4247 C.ar    
   7 N7             3.6629    -0.8339     0.2192 N.pl3   
   8 C8             4.3572    -0.5884     1.4007 C.ar    
   9 C9             4.8678     0.6851     1.6739 C.ar    
  10 C10            4.6999     1.7797     0.6929 C.2     
  11 N11            3.6207     1.9823    -0.1174 N.pl3   
  12 C12            4.5440    -1.6130     2.3190 C.ar    
  13 C13            5.2211    -1.3697     3.4987 C.ar    
  14 C14            5.7167    -0.1072     3.7754 C.ar    
  15 C15            5.5440     0.9209     2.8706 C.ar    
  16 N16            5.5890     2.7255     0.4647 N.2     
  17 C17            5.1331     3.5563    -0.4854 C.2     
  18 C18            3.8837     3.1066    -0.8750 C.2     
  19 C19            3.0068     3.7086    -1.8976 C.ar    
  20 C20            2.8096     5.0915    -1.9271 C.ar    
  21 C21            2.3741     2.8991    -2.8444 C.ar    
  22 C22            1.5557     3.4688    -3.7972 C.ar    
  23 C23            1.3605     4.8386    -3.8169 C.ar    
  24 C24            1.9884     5.6472    -2.8858 C.ar    
  25 C25            5.8405     4.7423    -1.0210 C.ar    
  26 C26            0.4651     5.4536    -4.8615 C.3     
  27 C27            6.6413     5.5168    -0.1812 C.ar    
  28 N28           -0.4444     4.4789    -5.4786 N.3     
  29 C29           -0.2360     6.7393    -4.3924 C.3     
  30 C30            0.0303     7.3037    -5.7979 C.3     
  31 C31            1.2163     6.3281    -5.8792 C.3     
  32 C32            7.2984     6.6201    -0.6825 C.ar    
  33 C33            7.1637     6.9611    -2.0231 C.ar    
  34 C34            6.3662     6.1917    -2.8619 C.ar    
  35 C35            5.7117     5.0838    -2.3676 C.ar    
  36 N36            7.8316     8.0812    -2.5289 N.am    
  37 C37            9.0576     8.3996    -2.0685 C.2     
  38 O38            9.5464     7.7662    -1.1569 O.2     
  39 C39            9.8212     9.5425    -2.6863 C.3     
  40 O40            9.5438     9.5988    -4.0869 O.3     
  41 C41            9.3937    10.8561    -2.0285 C.3     
  42 C42           11.3209     9.3291    -2.4716 C.3     
  43 H43           -0.8705     1.5425    -0.7099 H       
  44 H44           -0.7015    -0.8985    -0.4775 H       
  45 H45            1.1858     2.9295    -0.5248 H       
  46 H46            4.0125    -1.4757    -0.4187 H       
  47 H47            4.1596    -2.6006     2.1112 H       
  48 H48            5.3643    -2.1699     4.2098 H       
  49 H49            6.2400     0.0742     4.7026 H       
  50 H50            5.9318     1.9050     3.0887 H       
  51 H51            3.2987     5.7237    -1.2009 H       
  52 H52            2.5258     1.8299    -2.8304 H       
  53 H53            1.0662     2.8443    -4.5299 H       
  54 H54            1.8315     6.7156    -2.9071 H       
  55 H55            6.7461     5.2524     0.8607 H       
  56 H56            0.0592     3.6633    -5.7936 H       
  57 H57           -1.1855     4.2233    -4.8433 H       
  58 H58           -1.2943     6.6032    -4.1699 H       
  59 H59            0.2995     7.2652    -3.6020 H       
  60 H60           -0.7632     7.0869    -6.5130 H       
  61 H61            0.3269     8.3526    -5.7982 H       
  62 H62            2.1489     6.7416    -5.4953 H       
  63 H63            1.3304     5.8601    -6.8570 H       
  64 H64            7.9182     7.2202    -0.0328 H       
  65 H65            6.2627     6.4595    -3.9031 H       
  66 H66            5.0921     4.4863    -3.0199 H       
  67 H67            7.4125     8.6288    -3.2111 H       
  68 H68            9.7898     8.7976    -4.5692 H       
  69 H69            9.6053    10.8132    -0.9601 H       
  70 H70            9.9459    11.6828    -2.4753 H       
  71 H71            8.3252    11.0081    -2.1814 H       
  72 H72           11.6255     8.3933    -2.9402 H       
  73 H73           11.8732    10.1558    -2.9184 H       
  74 H74           11.5326     9.2862    -1.4032 H       
@<TRIPOS>BOND
   1    1    2 ar
   2    1    6 ar
   3    1   43 1
   4    2    3 ar
   5    2   44 1
   6    3    4 ar
   7    4    5 ar
   8    4    7 1
   9    5    6 ar
  10    5   11 1
  11    6   45 1
  12    7    8 1
  13    7   46 1
  14    8    9 ar
  15    8   12 ar
  16    9   10 1
  17    9   15 ar
  18   10   11 1
  19   10   16 2
  20   11   18 1
  21   12   13 ar
  22   12   47 1
  23   13   14 ar
  24   13   48 1
  25   14   15 ar
  26   14   49 1
  27   15   50 1
  28   16   17 1
  29   17   18 2
  30   17   25 1
  31   18   19 1
  32   19   20 ar
  33   19   21 ar
  34   20   24 ar
  35   20   51 1
  36   21   22 ar
  37   21   52 1
  38   22   23 ar
  39   22   53 1
  40   23   24 ar
  41   23   26 1
  42   24   54 1
  43   25   27 ar
  44   25   35 ar
  45   26   29 1
  46   26   28 1
  47   26   31 1
  48   27   32 ar
  49   27   55 1
  50   28   56 1
  51   28   57 1
  52   29   30 1
  53   29   58 1
  54   29   59 1
  55   30   31 1
  56   30   60 1
  57   30   61 1
  58   31   62 1
  59   31   63 1
  60   32   33 ar
  61   32   64 1
  62   33   34 ar
  63   33   36 1
  64   34   35 ar
  65   34   65 1
  66   35   66 1
  67   36   37 am
  68   36   67 1
  69   37   38 2
  70   37   39 1
  71   39   40 1
  72   39   41 1
  73   39   42 1
  74   40   68 1
  75   41   69 1
  76   41   70 1
  77   41   71 1
  78   42   72 1
  79   42   73 1
  80   42   74 1

#	End of record

