#	Name: ASD07930401
#	Creating user name:	WinNT
#	Creation time:	15. 06. 2019 21:12

#	Modifying user name:	WinNT
#	Modification time:	15. 06. 2019 21:12

#	Program:	/corina/corina34_cracker 3.40 0067  02.08.2006

@<TRIPOS>MOLECULE
ASD07930401
  48   50    0    0    0
SMALL
NO_CHARGES


@<TRIPOS>ATOM
   1 N1             0.1211     1.1278     0.2330 N.2     
   2 N2            -1.0878    -0.8678     0.0997 N.pl3   
   3 C3            -1.3793    -1.8003    -0.9941 C.3     
   4 C4            -0.2844    -2.8747    -1.0485 C.3     
   5 S5             1.3248    -2.0418    -1.2252 S.o2    
   6 N6             1.2788    -0.8946    -0.0176 N.am    
   7 C7             0.1024    -0.1696     0.1093 C.2     
   8 C8             2.4236    -0.6632     0.8668 C.3     
   9 C9            -1.4132    -1.0378    -2.3202 C.3     
  10 C10           -2.7154    -2.4550    -0.7547 C.ar    
  11 C11           -3.4563    -2.1223     0.3620 C.ar    
  12 C12           -4.6879    -2.7258     0.5819 C.ar    
  13 C13           -5.1707    -3.6625    -0.3226 C.ar    
  14 C14           -4.4254    -3.9916    -1.4380 C.ar    
  15 C15           -3.2013    -3.3850    -1.6573 C.ar    
  16 N16           -5.4404    -2.3910     1.7125 N.am    
  17 C17           -6.7862    -2.3674     1.6436 C.2     
  18 O18           -7.3432    -2.5434     0.5779 O.2     
  19 C19           -7.5863    -2.1268     2.8667 C.ar    
  20 O20            2.3858    -2.9106    -0.8528 O.2     
  21 O21            1.3741    -1.2906    -2.4304 O.2     
  22 N22           -6.9723    -1.9351     4.0277 N.ar    
  23 Cl23          -2.2674    -3.8005    -3.0605 Cl      
  24 C24           -7.6454    -1.7184     5.1367 C.ar    
  25 C25           -9.0304    -1.6824     5.1330 C.ar    
  26 C26           -9.7122    -1.8777     3.9418 C.ar    
  27 C27           -8.9771    -2.0979     2.7879 C.ar    
  28 C28           -9.7885    -1.4341     6.4116 C.3     
  29 F29           -8.8836    -1.2696     7.4658 F       
  30 F30          -10.5631    -0.2769     6.2772 F       
  31 F31          -10.6225    -2.5251     6.6788 F       
  32 H32            0.9670     1.6025     0.2374 H       
  33 H33           -1.7323    -0.7390     0.8131 H       
  34 H34           -0.2967    -3.4588    -0.1283 H       
  35 H35           -0.4548    -3.5300    -1.9027 H       
  36 H36            3.0710     0.0980     0.4314 H       
  37 H37            2.0682    -0.3245     1.8400 H       
  38 H38            2.9832    -1.5908     0.9869 H       
  39 H39           -0.4457    -0.5665    -2.4931 H       
  40 H40           -1.6299    -1.7314    -3.1326 H       
  41 H41           -2.1882    -0.2724    -2.2794 H       
  42 H42           -3.0784    -1.3938     1.0640 H       
  43 H43           -6.1278    -4.1334    -0.1538 H       
  44 H44           -4.8004    -4.7200    -2.1417 H       
  45 H45           -4.9936    -2.1758     2.5461 H       
  46 H46           -7.1111    -1.5667     6.0630 H       
  47 H47          -10.7916    -1.8544     3.9130 H       
  48 H48           -9.4754    -2.2538     1.8425 H       
@<TRIPOS>BOND
   1    1    7 2
   2    1   32 1
   3    2    3 1
   4    2    7 1
   5    2   33 1
   6    3    4 1
   7    3    9 1
   8    3   10 1
   9    4    5 1
  10    4   34 1
  11    4   35 1
  12    5    6 am
  13    5   20 2
  14    5   21 2
  15    6    7 1
  16    6    8 1
  17    8   36 1
  18    8   37 1
  19    8   38 1
  20    9   39 1
  21    9   40 1
  22    9   41 1
  23   10   11 ar
  24   10   15 ar
  25   11   12 ar
  26   11   42 1
  27   12   13 ar
  28   12   16 1
  29   13   14 ar
  30   13   43 1
  31   14   15 ar
  32   14   44 1
  33   15   23 1
  34   16   17 am
  35   16   45 1
  36   17   18 2
  37   17   19 1
  38   19   22 ar
  39   19   27 ar
  40   22   24 ar
  41   24   25 ar
  42   24   46 1
  43   25   26 ar
  44   25   28 1
  45   26   27 ar
  46   26   47 1
  47   27   48 1
  48   28   29 1
  49   28   30 1
  50   28   31 1

#	End of record

