#	Name: ASD01140461
#	Creating user name:	WinNT
#	Creation time:	15. 06. 2019 19:00

#	Modifying user name:	WinNT
#	Modification time:	15. 06. 2019 19:00

#	Program:	/corina/corina34_cracker 3.40 0067  02.08.2006

@<TRIPOS>MOLECULE
ASD01140461
  35   38    0    0    0
SMALL
NO_CHARGES


@<TRIPOS>ATOM
   1 C1            -0.0169     1.4316    -0.0774 C.ar    
   2 C2             0.8693     1.6009     0.9715 C.ar    
   3 C3             2.0718     0.9243     0.9795 C.ar    
   4 C4             2.3937     0.0673    -0.0727 C.ar    
   5 C5             1.4954    -0.1001    -1.1285 C.ar    
   6 C6             0.2953     0.5835    -1.1245 C.ar    
   7 C7             3.6829    -0.6614    -0.0705 C.2     
   8 N8             4.7431     0.0662    -0.1655 N.2     
   9 C9             4.3925    -2.9924    -0.7008 C.ar    
  10 C10            6.0877    -0.5196    -0.1594 C.3     
  11 C11            6.1890    -1.4487    -1.3426 C.2     
  12 C12            3.5955    -2.1216     0.0453 C.ar    
  13 C13            2.6589    -2.6584     0.9412 C.ar    
  14 C14            2.5042    -4.0215     1.0583 C.ar    
  15 C15            3.2727    -4.8785     0.2866 C.ar    
  16 C16            4.2101    -4.3669    -0.5858 C.ar    
  17 N17            5.3913    -2.5221    -1.5643 N.pl3   
  18 C18            5.7784    -3.0446    -2.7576 C.2     
  19 N19            6.7813    -2.3200    -3.1813 N.2     
  20 N20            7.0319    -1.3788    -2.3330 N.2     
  21 C21            5.1686    -4.2311    -3.4586 C.3     
  22 Cl22           1.8865    -1.1639    -2.4434 Cl      
  23 Cl23           1.3438    -4.6682     2.1758 Cl      
  24 H24           -0.9585     1.9605    -0.0764 H       
  25 H25            0.6194     2.2647     1.7860 H       
  26 H26            2.7625     1.0583     1.7988 H       
  27 H27           -0.4008     0.4553    -1.9402 H       
  28 H28            6.8348     0.2695    -0.2443 H       
  29 H29            6.2429    -1.0785     0.7635 H       
  30 H30            2.0545    -1.9971     1.5443 H       
  31 H31            3.1377    -5.9469     0.3687 H       
  32 H32            4.8075    -5.0386    -1.1845 H       
  33 H33            4.3014    -3.9070    -4.0340 H       
  34 H34            5.9046    -4.6745    -4.1293 H       
  35 H35            4.8588    -4.9700    -2.7196 H       
@<TRIPOS>BOND
   1    1    2 ar
   2    1    6 ar
   3    1   24 1
   4    2    3 ar
   5    2   25 1
   6    3    4 ar
   7    3   26 1
   8    4    5 ar
   9    4    7 1
  10    5    6 ar
  11    5   22 1
  12    6   27 1
  13    7   12 1
  14    7    8 2
  15    8   10 1
  16    9   17 1
  17    9   12 ar
  18    9   16 ar
  19   10   11 1
  20   10   28 1
  21   10   29 1
  22   11   20 2
  23   11   17 1
  24   12   13 ar
  25   13   14 ar
  26   13   30 1
  27   14   15 ar
  28   14   23 1
  29   15   16 ar
  30   15   31 1
  31   16   32 1
  32   17   18 1
  33   18   19 2
  34   18   21 1
  35   19   20 1
  36   21   33 1
  37   21   34 1
  38   21   35 1

#	End of record

