#	Name: ASD01915760
#	Creating user name:	WinNT
#	Creation time:	15. 06. 2019 20:06

#	Modifying user name:	WinNT
#	Modification time:	15. 06. 2019 20:06

#	Program:	/corina/corina34_cracker 3.40 0067  02.08.2006

@<TRIPOS>MOLECULE
ASD01915760
  44   47    0    0    0
SMALL
NO_CHARGES


@<TRIPOS>ATOM
   1 C1            -0.0166     1.3736     0.0096 C.2     
   2 N2             0.0021    -0.0041     0.0020 N.pl3   
   3 C3            -1.2451    -0.7770     0.0110 C.3     
   4 C4            -2.3226     0.0138     0.7509 C.3     
   5 N5            -2.3981     1.4042     0.3186 N.am    
   6 C6            -1.2846     2.1200     0.0203 C.2     
   7 C7             1.2836     1.7913    -0.0006 C.2     
   8 C8             2.0431     0.6135    -0.0147 C.2     
   9 N9             1.2130    -0.4035    -0.0125 N.2     
  10 C10            3.5477     0.5294    -0.0304 C.3     
  11 O11            4.0368     0.4953     1.3119 O.3     
  12 C12            5.3837     0.4191     1.4759 C.ar    
  13 O13           -1.3315     3.3121    -0.2164 O.2     
  14 C14            5.9273     0.3824     2.7518 C.ar    
  15 C15            6.2171     0.3723     0.3678 C.ar    
  16 C16            7.5860     0.2949     0.5373 C.ar    
  17 C17            8.1256     0.2641     1.8099 C.ar    
  18 C18            7.2968     0.3050     2.9159 C.ar    
  19 C19           -3.7104     2.0442     0.1981 C.3     
  20 C20           -4.0828     2.6987     1.5300 C.3     
  21 C21            1.7912     3.2102     0.0027 C.3     
  22 C22           -5.3709     3.5231     1.5762 C.3     
  23 C23           -5.3115     2.1577     2.2639 C.3     
  24 H24           -1.5673    -0.9600    -1.0141 H       
  25 H25           -1.0801    -1.7283     0.5167 H       
  26 H26           -3.2884    -0.4612     0.5784 H       
  27 H27           -2.1064    -0.0112     1.8189 H       
  28 H28            3.8555    -0.3767    -0.5524 H       
  29 H29            3.9550     1.4005    -0.5435 H       
  30 H30            5.2804     0.4146     3.6160 H       
  31 H31            5.7961     0.3959    -0.6264 H       
  32 H32            8.2351     0.2580    -0.3250 H       
  33 H33            9.1959     0.2036     1.9403 H       
  34 H34            7.7207     0.2812     3.9090 H       
  35 H35           -3.6739     2.8040    -0.5825 H       
  36 H36           -4.4581     1.2941    -0.0597 H       
  37 H37           -3.2442     3.0409     2.1364 H       
  38 H38            1.9236     3.5463     1.0311 H       
  39 H39            2.7466     3.2555    -0.5201 H       
  40 H40            1.0708     3.8550    -0.5004 H       
  41 H41           -5.3798     4.4075     2.2133 H       
  42 H42           -5.9530     3.5992     0.6578 H       
  43 H43           -5.8545     1.3354     1.7978 H       
  44 H44           -5.2813     2.1437     3.3533 H       
@<TRIPOS>BOND
   1    1    2 1
   2    1    7 2
   3    1    6 1
   4    2    3 1
   5    2    9 1
   6    3    4 1
   7    3   24 1
   8    3   25 1
   9    4    5 1
  10    4   26 1
  11    4   27 1
  12    5    6 am
  13    5   19 1
  14    6   13 2
  15    7    8 1
  16    7   21 1
  17    8    9 2
  18    8   10 1
  19   10   11 1
  20   10   28 1
  21   10   29 1
  22   11   12 1
  23   12   14 ar
  24   12   15 ar
  25   14   18 ar
  26   14   30 1
  27   15   16 ar
  28   15   31 1
  29   16   17 ar
  30   16   32 1
  31   17   18 ar
  32   17   33 1
  33   18   34 1
  34   19   20 1
  35   19   35 1
  36   19   36 1
  37   20   22 1
  38   20   23 1
  39   20   37 1
  40   21   38 1
  41   21   39 1
  42   21   40 1
  43   22   23 1
  44   22   41 1
  45   22   42 1
  46   23   43 1
  47   23   44 1

#	End of record

