#	Name: ASD01150764
#	Creating user name:	WinNT
#	Creation time:	15. 06. 2019 19:05

#	Modifying user name:	WinNT
#	Modification time:	15. 06. 2019 19:05

#	Program:	/corina/corina34_cracker 3.40 0067  02.08.2006

@<TRIPOS>MOLECULE
ASD01150764
  47   50    0    0    0
SMALL
NO_CHARGES


@<TRIPOS>ATOM
   1 C1            -0.1007     1.5874    -0.0669 C.2     
   2 C2            -0.7375     1.2767    -1.3970 C.3     
   3 N3             3.5306     2.2721     0.1200 N.ar    
   4 C4             2.3886     1.6380     0.0728 C.ar    
   5 C5             1.1647     2.3265    -0.0146 C.ar    
   6 C6             1.1699     3.7331    -0.0517 C.ar    
   7 C7             2.4253     4.3886     0.0018 C.ar    
   8 C8             2.5135     5.7859    -0.0309 C.ar    
   9 C9             3.7530     6.3897     0.0226 C.ar    
  10 C10            4.9152     5.6162     0.1086 C.ar    
  11 C11            4.8511     4.2573     0.1411 C.ar    
  12 C12            3.6055     3.6099     0.0892 C.ar    
  13 N13            3.8478     7.7825    -0.0096 N.3     
  14 C14            2.7342     8.4052     0.7294 C.3     
  15 C15            3.3549     9.3089     1.8155 C.3     
  16 C16            4.7782     9.5892     1.2655 C.3     
  17 C17            5.1217     8.2408     0.5847 C.3     
  18 C18            2.3828     0.1315     0.1113 C.3     
  19 C19           -0.0890     4.4997    -0.1437 C.ar    
  20 C20           -1.0143     4.4565     0.9022 C.ar    
  21 C21           -2.1874     5.1744     0.8111 C.ar    
  22 C22           -2.4500     5.9384    -0.3158 C.ar    
  23 C23           -1.5354     5.9851    -1.3569 C.ar    
  24 C24           -0.3565     5.2755    -1.2744 C.ar    
  25 F25           -3.6017     6.6398    -0.3999 F       
  26 F26           -2.0457     1.7722    -1.4148 F       
  27 F27            0.0029     1.8783    -2.4203 F       
  28 F28           -0.7608    -0.1086    -1.5907 F       
  29 O29           -0.6376     1.2303     0.9608 O.2     
  30 H30            1.6182     6.3862    -0.0980 H       
  31 H31            5.8776     6.1046     0.1493 H       
  32 H32            5.7589     3.6759     0.2069 H       
  33 H33            2.1277     9.0046     0.0504 H       
  34 H34            2.1209     7.6337     1.1950 H       
  35 H35            2.7904    10.2361     1.9142 H       
  36 H36            3.4068     8.7846     2.7697 H       
  37 H37            4.7629    10.4010     0.5383 H       
  38 H38            5.4742     9.8059     2.0758 H       
  39 H39            5.4759     7.5220     1.3236 H       
  40 H40            5.8716     8.3882    -0.1925 H       
  41 H41            2.4066    -0.2055     1.1476 H       
  42 H42            1.4790    -0.2408    -0.3711 H       
  43 H43            3.2584    -0.2488    -0.4146 H       
  44 H44           -0.8110     3.8614     1.7802 H       
  45 H45           -2.9036     5.1414     1.6188 H       
  46 H46           -1.7453     6.5817    -2.2324 H       
  47 H47            0.3571     5.3159    -2.0841 H       
@<TRIPOS>BOND
   1    1    2 1
   2    1    5 1
   3    1   29 2
   4    2   26 1
   5    2   27 1
   6    2   28 1
   7    3    4 ar
   8    3   12 ar
   9    4    5 ar
  10    4   18 1
  11    5    6 ar
  12    6    7 ar
  13    6   19 1
  14    7    8 ar
  15    7   12 ar
  16    8    9 ar
  17    8   30 1
  18    9   10 ar
  19    9   13 1
  20   10   11 ar
  21   10   31 1
  22   11   12 ar
  23   11   32 1
  24   13   14 1
  25   13   17 1
  26   14   15 1
  27   14   33 1
  28   14   34 1
  29   15   16 1
  30   15   35 1
  31   15   36 1
  32   16   17 1
  33   16   37 1
  34   16   38 1
  35   17   39 1
  36   17   40 1
  37   18   41 1
  38   18   42 1
  39   18   43 1
  40   19   20 ar
  41   19   24 ar
  42   20   21 ar
  43   20   44 1
  44   21   22 ar
  45   21   45 1
  46   22   23 ar
  47   22   25 1
  48   23   24 ar
  49   23   46 1
  50   24   47 1

#	End of record

