#	Name: ASD02580004
#	Creating user name:	WinNT
#	Creation time:	15. 06. 2019 20:25

#	Modifying user name:	WinNT
#	Modification time:	15. 06. 2019 20:25

#	Program:	/corina/corina34_cracker 3.40 0067  02.08.2006

@<TRIPOS>MOLECULE
ASD02580004
 104  106    0    0    0
SMALL
NO_CHARGES


@<TRIPOS>ATOM
   1 C1             0.9846     1.6939    -1.6909 C.3     
   2 C2             1.2708     0.1846    -1.8825 C.3     
   3 C3             1.2297    -0.3920    -0.4540 C.3     
   4 O4             0.9952     0.7061     0.4434 O.3     
   5 C5             0.2902     1.7194    -0.3054 C.3     
   6 C6             0.1886    -0.4596    -2.7513 C.3     
   7 O7             2.5605    -0.0098    -2.4663 O.3     
   8 C8             2.5669    -1.0579    -0.1231 C.3     
   9 O9             2.4793    -1.7000     1.1763 O.3     
  10 O10            2.2201     2.4563    -1.6653 O.3     
  11 C11            2.1664     3.7190    -2.1175 C.2     
  12 O12            1.1216     4.1722    -2.5212 O.2     
  13 C13            3.4091     4.5715    -2.1215 C.3     
  14 C14            4.4776     3.9112    -2.9951 C.3     
  15 C15            3.0762     5.9558    -2.6817 C.3     
  16 C16            5.7863     4.6954    -2.8803 C.3     
  17 C17            2.1352     6.6828    -1.7190 C.3     
  18 C18            1.7123     8.0196    -2.3314 C.3     
  19 C19            6.8884     3.9638    -3.6491 C.3     
  20 N20            0.4480     3.0315     0.3267 N.pl3   
  21 C21           -0.3970     4.1042     0.1926 C.ar    
  22 C22            0.1561     5.1331     0.9751 C.ar    
  23 N23            1.2882     4.6436     1.5351 N.2     
  24 C24            1.4580     3.4087     1.1605 C.2     
  25 N25           -1.5258     4.3325    -0.4695 N.ar    
  26 C26           -2.1208     5.5044    -0.3962 C.ar    
  27 N27           -1.6388     6.5002     0.3250 N.ar    
  28 C28           -0.5157     6.3653     1.0208 C.ar    
  29 N29           -0.0171     7.4187     1.7764 N.am    
  30 C30            3.5767    -2.3346     1.6176 C.2     
  31 O31            4.5773    -2.3529     0.9405 O.2     
  32 C32            3.5608    -3.0242     2.9574 C.3     
  33 C33            4.9260    -3.6640     3.2180 C.3     
  34 C34            3.2594    -2.0008     4.0542 C.3     
  35 C35            1.8439    -1.4520     3.8646 C.3     
  36 C36            4.8724    -4.4683     4.5185 C.3     
  37 C37            1.5426    -0.4286     4.9613 C.3     
  38 C38            6.2376    -5.1080     4.7790 C.3     
  39 C39           -0.6746     8.5948     1.8093 C.2     
  40 O40           -1.7014     8.7333     1.1792 O.2     
  41 C41           -0.1336     9.7378     2.6291 C.3     
  42 C42            1.2632    10.1091     2.1273 C.3     
  43 C43           -1.0620    10.9464     2.4941 C.3     
  44 C44           -2.4085    10.6309     3.1487 C.3     
  45 C45            1.8703    11.1702     3.0472 C.3     
  46 C46            3.2214    11.6186     2.4867 C.3     
  47 C47           -3.3748    11.7936     2.9135 C.3     
  48 H48            0.3167     2.0649    -2.4683 H       
  49 H49            0.4211    -1.1181    -0.3705 H       
  50 H50           -0.7648     1.4622    -0.4001 H       
  51 H51            0.1709     0.0243    -3.7278 H       
  52 H52            0.4060    -1.5205    -2.8753 H       
  53 H53           -0.7821    -0.3415    -2.2696 H       
  54 H54            2.7919    -0.9378    -2.6088 H       
  55 H55            2.7986    -1.8046    -0.8825 H       
  56 H56            3.3534    -0.3035    -0.1033 H       
  57 H57            3.7839     4.6722    -1.1029 H       
  58 H58            4.6378     2.8862    -2.6608 H       
  59 H59            4.1463     3.9071    -4.0335 H       
  60 H60            3.9945     6.5317    -2.7965 H       
  61 H61            2.5912     5.8481    -3.6519 H       
  62 H62            5.6507     5.6921    -3.3003 H       
  63 H63            6.0692     4.7787    -1.8310 H       
  64 H64            1.2522     6.0690    -1.5412 H       
  65 H65            2.6492     6.8621    -0.7746 H       
  66 H66            1.1983     7.8402    -3.2757 H       
  67 H67            1.0419     8.5375    -1.6455 H       
  68 H68            2.5953     8.6333    -2.5092 H       
  69 H69            7.0241     2.9671    -3.2291 H       
  70 H70            6.6056     3.8805    -4.6984 H       
  71 H71            7.8208     4.5225    -3.5673 H       
  72 H72            2.2819     2.7781     1.4604 H       
  73 H73           -3.0372     5.6574    -0.9468 H       
  74 H74            0.8042     7.3080     2.2804 H       
  75 H75            2.7914    -3.7963     2.9596 H       
  76 H76            5.1804    -4.3269     2.3910 H       
  77 H77            5.6823    -2.8838     3.3042 H       
  78 H78            3.3353    -2.4809     5.0298 H       
  79 H79            3.9773    -1.1828     3.9949 H       
  80 H80            1.7680    -0.9719     2.8889 H       
  81 H81            1.1261    -2.2701     3.9238 H       
  82 H82            4.6180    -3.8053     5.3455 H       
  83 H83            4.1161    -5.2484     4.4323 H       
  84 H84            0.5341    -0.0376     4.8262 H       
  85 H85            1.6185    -0.9087     5.9370 H       
  86 H86            2.2604     0.3895     4.9021 H       
  87 H87            6.9939    -4.3279     4.8652 H       
  88 H88            6.1994    -5.6810     5.7055 H       
  89 H89            6.4920    -5.7709     3.9520 H       
  90 H90           -0.0761     9.4389     3.6757 H       
  91 H91            1.8970     9.2223     2.1276 H       
  92 H92            1.1921    10.5044     1.1140 H       
  93 H93           -0.6113    11.8077     2.9872 H       
  94 H94           -1.2150    11.1710     1.4385 H       
  95 H95           -2.8208     9.7216     2.7114 H       
  96 H96           -2.2669    10.4871     4.2199 H       
  97 H97            1.1990    12.0270     3.1063 H       
  98 H98            2.0114    10.7500     4.0430 H       
  99 H99            3.6539    12.3746     3.1421 H       
 100 H100           3.8927    10.7618     2.4277 H       
 101 H101           3.0803    12.0388     1.4909 H       
 102 H102          -2.9624    12.7029     3.3507 H       
 103 H103          -3.5164    11.9373     1.8423 H       
 104 H104          -4.3340    11.5688     3.3798 H       
@<TRIPOS>BOND
   1    1    2 1
   2    1   10 1
   3    1    5 1
   4    1   48 1
   5    2    6 1
   6    2    7 1
   7    2    3 1
   8    3    4 1
   9    3    8 1
  10    3   49 1
  11    4    5 1
  12    5   20 1
  13    5   50 1
  14    6   51 1
  15    6   52 1
  16    6   53 1
  17    7   54 1
  18    8    9 1
  19    8   55 1
  20    8   56 1
  21    9   30 1
  22   10   11 1
  23   11   12 2
  24   11   13 1
  25   13   14 1
  26   13   15 1
  27   13   57 1
  28   14   16 1
  29   14   58 1
  30   14   59 1
  31   15   17 1
  32   15   60 1
  33   15   61 1
  34   16   19 1
  35   16   62 1
  36   16   63 1
  37   17   18 1
  38   17   64 1
  39   17   65 1
  40   18   66 1
  41   18   67 1
  42   18   68 1
  43   19   69 1
  44   19   70 1
  45   19   71 1
  46   20   21 1
  47   20   24 1
  48   21   22 ar
  49   21   25 ar
  50   22   23 1
  51   22   28 ar
  52   23   24 2
  53   24   72 1
  54   25   26 ar
  55   26   27 ar
  56   26   73 1
  57   27   28 ar
  58   28   29 1
  59   29   39 am
  60   29   74 1
  61   30   31 2
  62   30   32 1
  63   32   33 1
  64   32   34 1
  65   32   75 1
  66   33   36 1
  67   33   76 1
  68   33   77 1
  69   34   35 1
  70   34   78 1
  71   34   79 1
  72   35   37 1
  73   35   80 1
  74   35   81 1
  75   36   38 1
  76   36   82 1
  77   36   83 1
  78   37   84 1
  79   37   85 1
  80   37   86 1
  81   38   87 1
  82   38   88 1
  83   38   89 1
  84   39   40 2
  85   39   41 1
  86   41   42 1
  87   41   43 1
  88   41   90 1
  89   42   45 1
  90   42   91 1
  91   42   92 1
  92   43   44 1
  93   43   93 1
  94   43   94 1
  95   44   47 1
  96   44   95 1
  97   44   96 1
  98   45   46 1
  99   45   97 1
 100   45   98 1
 101   46   99 1
 102   46  100 1
 103   46  101 1
 104   47  102 1
 105   47  103 1
 106   47  104 1

#	End of record

