#	Name: ASD01912356
#	Creating user name:	WinNT
#	Creation time:	15. 06. 2019 19:59

#	Modifying user name:	WinNT
#	Modification time:	15. 06. 2019 19:59

#	Program:	/corina/corina34_cracker 3.40 0067  02.08.2006

@<TRIPOS>MOLECULE
ASD01912356
  48   50    0    0    0
SMALL
NO_CHARGES


@<TRIPOS>ATOM
   1 C1             0.0926     1.6286     1.4125 C.ar    
   2 C2             0.1123     0.2561     1.5846 C.ar    
   3 C3             1.3259    -0.4177     1.5586 C.ar    
   4 C4             2.4834     0.3128     1.3597 C.ar    
   5 C5             2.3915     1.6973     1.1928 C.ar    
   6 N6             1.2077     2.3033     1.2246 N.ar    
   7 C7             3.5799     2.4690     0.9859 C.1     
   8 C8             4.5542     3.1016     0.8163 C.1     
   9 C9             5.7427     3.8732     0.6094 C.2     
  10 N10            5.4040     7.5488    -0.9495 N.am    
  11 C11            6.7044     6.8718    -1.0342 C.3     
  12 C12            6.9042     6.0263     0.2300 C.3     
  13 C13            5.6604     5.1934     0.4497 C.2     
  14 C14            4.3209     5.8960     0.4841 C.3     
  15 C15            4.1859     6.7448    -0.7865 C.3     
  16 C16            5.3297     8.8930    -1.0150 C.2     
  17 C17            4.0105     9.5592    -1.0598 C.ar    
  18 C18            3.7740    10.6966    -0.2871 C.ar    
  19 C19            2.5362    11.3151    -0.3342 C.ar    
  20 C20            1.5343    10.8036    -1.1482 C.ar    
  21 C21            1.7671     9.6764    -1.9140 C.ar    
  22 C22            2.9993     9.0560    -1.8797 C.ar    
  23 O23            6.3473     9.5575    -1.0372 O.2     
  24 O24            2.3015    12.4232     0.4169 O.3     
  25 C25            1.0021    13.0099     0.3194 C.3     
  26 F26            0.0382    12.0764     0.7152 F       
  27 F27            0.9336    14.1324     1.1516 F       
  28 F28            0.7626    13.3951    -1.0040 F       
  29 C29           -1.2242     2.3611     1.4341 C.3     
  30 H30           -0.8087    -0.2867     1.7382 H       
  31 H31            1.3653    -1.4888     1.6910 H       
  32 H32            3.4443    -0.1795     1.3343 H       
  33 H33            6.7057     3.3851     0.5829 H       
  34 H34            6.7237     6.2263    -1.9123 H       
  35 H35            7.4990     7.6144    -1.1065 H       
  36 H36            7.7662     5.3717     0.1013 H       
  37 H37            7.0641     6.6802     1.0873 H       
  38 H38            3.5200     5.1576     0.5190 H       
  39 H39            4.2664     6.5391     1.3625 H       
  40 H40            3.3225     7.4038    -0.6956 H       
  41 H41            4.0607     6.0920    -1.6503 H       
  42 H42            4.5539    11.0930     0.3461 H       
  43 H43            0.5695    11.2878    -1.1828 H       
  44 H44            0.9837     9.2831    -2.5449 H       
  45 H45            3.1794     8.1785    -2.4829 H       
  46 H46           -1.4534     2.6664     2.4551 H       
  47 H47           -1.1598     3.2431     0.7970 H       
  48 H48           -2.0118     1.7037     1.0659 H       
@<TRIPOS>BOND
   1    1    2 ar
   2    1    6 ar
   3    1   29 1
   4    2    3 ar
   5    2   30 1
   6    3    4 ar
   7    3   31 1
   8    4    5 ar
   9    4   32 1
  10    5    6 ar
  11    5    7 1
  12    7    8 3
  13    8    9 1
  14    9   13 2
  15    9   33 1
  16   10   11 1
  17   10   15 1
  18   10   16 am
  19   11   12 1
  20   11   34 1
  21   11   35 1
  22   12   13 1
  23   12   36 1
  24   12   37 1
  25   13   14 1
  26   14   15 1
  27   14   38 1
  28   14   39 1
  29   15   40 1
  30   15   41 1
  31   16   17 1
  32   16   23 2
  33   17   18 ar
  34   17   22 ar
  35   18   19 ar
  36   18   42 1
  37   19   20 ar
  38   19   24 1
  39   20   21 ar
  40   20   43 1
  41   21   22 ar
  42   21   44 1
  43   22   45 1
  44   24   25 1
  45   25   26 1
  46   25   27 1
  47   25   28 1
  48   29   46 1
  49   29   47 1
  50   29   48 1

#	End of record

