#	Name: ASD00170366
#	Creating user name:	WinNT
#	Creation time:	15. 06. 2019 18:32

#	Modifying user name:	WinNT
#	Modification time:	15. 06. 2019 18:32

#	Program:	/corina/corina34_cracker 3.40 0067  02.08.2006

@<TRIPOS>MOLECULE
ASD00170366
  29   30    0    0    0
SMALL
NO_CHARGES


@<TRIPOS>ATOM
   1 I1             0.0000     0.0000     0.0000 I       
   2 H2             0.0000     1.7100     0.0000 H       
   3 C3             5.9206    16.5169    10.3435 C.3     
   4 C4             6.0090    15.0143    10.4190 C.2     
   5 O5             5.0000    14.3518    10.4726 O.2     
   6 O6             7.2089    14.4120    10.4266 O.3     
   7 C7             7.2212    13.0632    10.5954 C.ar    
   8 C8             7.3834    12.5206    11.8639 C.ar    
   9 C9             7.3964    11.1487    12.0353 C.ar    
  10 C10            7.2487    10.3089    10.9498 C.ar    
  11 C11            7.0850    10.8472     9.6726 C.ar    
  12 C12            7.0667    12.2258     9.5056 C.ar    
  13 C13            6.8690    12.4837     8.0340 C.3     
  14 C14            6.7710    11.1174     7.3908 C.2     
  15 S15            6.5528    10.3293     5.8290 S.3     
  16 C16            6.6464     8.7553     6.6087 C.2     
  17 N17            6.5497     7.5345     5.9608 N.pl3   
  18 N18            6.8199     8.9136     7.8772 N.2     
  19 C19            6.9073    10.1782     8.3461 C.2     
  20 H20            5.9193    16.9318    11.3514 H       
  21 H21            6.7777    16.9040     9.7924 H       
  22 H22            5.0011    16.8015     9.8321 H       
  23 H23            7.4998    13.1716    12.7178 H       
  24 H24            7.5231    10.7319    13.0235 H       
  25 H25            7.2603     9.2379    11.0884 H       
  26 H26            5.9486    13.0441     7.8701 H       
  27 H27            7.7208    13.0303     7.6295 H       
  28 H28            6.4195     7.5044     5.0000 H       
  29 H29            6.6120     6.7100     6.4679 H       
@<TRIPOS>BOND
   1    1    2 1
   2    3    4 1
   3    3   20 1
   4    3   21 1
   5    3   22 1
   6    4    5 2
   7    4    6 1
   8    6    7 1
   9    7   12 ar
  10    7    8 ar
  11    8    9 ar
  12    8   23 1
  13    9   10 ar
  14    9   24 1
  15   10   11 ar
  16   10   25 1
  17   11   19 1
  18   11   12 ar
  19   12   13 1
  20   13   14 1
  21   13   26 1
  22   13   27 1
  23   14   19 2
  24   14   15 1
  25   15   16 1
  26   16   17 1
  27   16   18 2
  28   17   28 1
  29   17   29 1
  30   18   19 1

#	End of record

