#	Name: ASD09116088
#	Creating user name:	WinNT
#	Creation time:	15. 06. 2019 21:20

#	Modifying user name:	WinNT
#	Modification time:	15. 06. 2019 21:20

#	Program:	/corina/corina34_cracker 3.40 0067  02.08.2006

@<TRIPOS>MOLECULE
ASD09116088
  62   67    0    0    0
SMALL
NO_CHARGES


@<TRIPOS>ATOM
   1 C1             0.2646     1.2850    -1.3292 C.2     
   2 N2             0.2305    -0.0844    -1.1021 N.pl3   
   3 N3             1.2527    -0.8719    -0.5478 N.2     
   4 C4             0.8093    -2.1053    -0.5111 C.2     
   5 N5            -0.4321    -2.1410    -1.0098 N.2     
   6 C6            -0.8019    -0.9298    -1.3668 C.2     
   7 N7            -2.0184    -0.5805    -1.9202 N.pl3   
   8 N8             1.5189    -3.2053    -0.0297 N.pl3   
   9 C9             0.8961    -4.4529     0.0618 C.ar    
  10 C10           -0.4749    -4.5282     0.2761 C.ar    
  11 C11           -1.0668    -5.7729     0.3282 C.ar    
  12 C12           -0.3112    -6.9201     0.1709 C.ar    
  13 C13            1.0609    -6.8779     0.0257 C.ar    
  14 C14            1.6436    -5.6052    -0.0664 C.ar    
  15 C15           -1.0441    -8.2409     0.0713 C.3     
  16 C16           -1.0301    -8.7926    -1.3523 C.3     
  17 N17            0.3226    -8.9802    -1.8540 N.3     
  18 C18            0.9735    -9.9958    -1.0566 C.3     
  19 C19            1.4790    -9.3820     0.2397 C.3     
  20 C20            2.0754    -7.9959     0.0264 C.3     
  21 S21            1.6289     2.3302    -0.9589 S.3     
  22 C22            0.7411     3.7261    -1.5651 C.ar    
  23 C23           -0.5160     3.2945    -1.9998 C.ar    
  24 N24           -0.6964     1.9686    -1.8459 N.2     
  25 C25            1.0957     5.0701    -1.6575 C.ar    
  26 C26            0.2094     5.9859    -2.1782 C.ar    
  27 C27           -1.0411     5.5711    -2.6132 C.ar    
  28 C28           -1.4072     4.2519    -2.5303 C.ar    
  29 C29            0.3101    -9.3539    -3.2746 C.3     
  30 C30           -0.4537    -8.2967    -4.0911 C.3     
  31 C31            0.5492    -7.7183    -5.1107 C.3     
  32 C32            1.6152    -8.8310    -5.2681 C.3     
  33 C33            1.7504    -9.3811    -3.8265 C.3     
  34 H34           -2.6924    -1.2599    -2.0782 H       
  35 H35           -2.1986     0.3443    -2.1509 H       
  36 H36            2.4447    -3.1043     0.2415 H       
  37 H37           -1.0642    -3.6315     0.3994 H       
  38 H38           -2.1310    -5.8522     0.4939 H       
  39 H39            2.7076    -5.5253    -0.2337 H       
  40 H40           -0.5675    -8.9618     0.7356 H       
  41 H41           -2.0778    -8.0975     0.3859 H       
  42 H42           -1.5486    -9.7513    -1.3654 H       
  43 H43           -1.5569    -8.0976    -2.0062 H       
  44 H44            0.2628   -10.7905    -0.8297 H       
  45 H45            1.8130   -10.4122    -1.6133 H       
  46 H46            0.6490    -9.3056     0.9421 H       
  47 H47            2.2419   -10.0336     0.6657 H       
  48 H48            2.6005    -7.9879    -0.9288 H       
  49 H49            2.8005    -7.8052     0.8176 H       
  50 H50            2.0687     5.3946    -1.3193 H       
  51 H51            0.4874     7.0273    -2.2477 H       
  52 H52           -1.7327     6.2937    -3.0205 H       
  53 H53           -2.3840     3.9437    -2.8729 H       
  54 H54           -0.1568   -10.3310    -3.3992 H       
  55 H55           -1.2907    -8.7608    -4.6126 H       
  56 H56           -0.8150    -7.5063    -3.4332 H       
  57 H57            0.0559    -7.5251    -6.0633 H       
  58 H58            1.0038    -6.8065    -4.7235 H       
  59 H59            1.2648    -9.6084    -5.9470 H       
  60 H60            2.5613    -8.4135    -5.6125 H       
  61 H61            2.3990    -8.7378    -3.2319 H       
  62 H62            2.1338   -10.4014    -3.8420 H       
@<TRIPOS>BOND
   1    1    2 1
   2    1   21 1
   3    1   24 2
   4    2    3 1
   5    2    6 1
   6    3    4 2
   7    4    5 1
   8    4    8 1
   9    5    6 2
  10    6    7 1
  11    7   34 1
  12    7   35 1
  13    8    9 1
  14    8   36 1
  15    9   10 ar
  16    9   14 ar
  17   10   11 ar
  18   10   37 1
  19   11   12 ar
  20   11   38 1
  21   12   13 ar
  22   12   15 1
  23   13   14 ar
  24   13   20 1
  25   14   39 1
  26   15   16 1
  27   15   40 1
  28   15   41 1
  29   16   17 1
  30   16   42 1
  31   16   43 1
  32   17   18 1
  33   17   29 1
  34   18   19 1
  35   18   44 1
  36   18   45 1
  37   19   20 1
  38   19   46 1
  39   19   47 1
  40   20   48 1
  41   20   49 1
  42   21   22 1
  43   22   23 ar
  44   22   25 ar
  45   23   24 1
  46   23   28 ar
  47   25   26 ar
  48   25   50 1
  49   26   27 ar
  50   26   51 1
  51   27   28 ar
  52   27   52 1
  53   28   53 1
  54   29   30 1
  55   29   33 1
  56   29   54 1
  57   30   31 1
  58   30   55 1
  59   30   56 1
  60   31   32 1
  61   31   57 1
  62   31   58 1
  63   32   33 1
  64   32   59 1
  65   32   60 1
  66   33   61 1
  67   33   62 1

#	End of record

