#	Name: ASD02038115
#	Creating user name:	WinNT
#	Creation time:	15. 06. 2019 20:16

#	Modifying user name:	WinNT
#	Modification time:	15. 06. 2019 20:16

#	Program:	/corina/corina34_cracker 3.40 0067  02.08.2006

@<TRIPOS>MOLECULE
ASD02038115
  52   54    0    0    0
SMALL
NO_CHARGES


@<TRIPOS>ATOM
   1 C1            -0.1692     1.1613     0.1083 C.ar    
   2 C2            -0.0902    -0.2188    -0.0058 C.ar    
   3 C3             0.9897     1.9179     0.1993 C.ar    
   4 C4             2.2235     1.2977     0.1760 C.ar    
   5 C5             2.3035    -0.0839     0.0618 C.ar    
   6 C6             1.1428    -0.8407    -0.0288 C.ar    
   7 N7             3.5532    -0.7132     0.0376 N.3     
   8 C8             6.8915    -3.1263     0.9752 C.3     
   9 C9             6.7025    -4.6402     1.0909 C.3     
  10 C10            8.0575    -5.3358     0.9459 C.3     
  11 O11            6.1401    -4.9539     2.3666 O.3     
  12 O12            7.8673    -6.7521     0.9373 O.3     
  13 C13            8.9803    -7.5237     0.8143 C.ar    
  14 C14            8.8676    -8.9060     0.7988 C.ar    
  15 C15            9.9981    -9.6898     0.6740 C.ar    
  16 C16           11.2460    -9.0945     0.5637 C.ar    
  17 C17           11.3586    -7.7121     0.5783 C.ar    
  18 C18           10.2276    -6.9283     0.6988 C.ar    
  19 O19           12.3590    -9.8661     0.4417 O.3     
  20 C20            3.4069    -2.1701    -0.0882 C.3     
  21 C21            4.7924    -2.8122    -0.1910 C.3     
  22 N22            5.5796    -2.4657     1.0006 N.3     
  23 C23            5.7259    -1.0089     1.1263 C.3     
  24 C24            4.3405    -0.3667     1.2291 C.3     
  25 O25           -1.3835     1.7734     0.1253 O.3     
  26 C26           -1.3907     3.1973     0.2451 C.3     
  27 H27           -0.9930    -0.8072    -0.0762 H       
  28 H28            0.9273     2.9924     0.2882 H       
  29 H29            3.1258     1.8870     0.2462 H       
  30 H30            1.2041    -1.9153    -0.1177 H       
  31 H31            7.4938    -2.7704     1.8110 H       
  32 H32            7.3972    -2.8939     0.0380 H       
  33 H33            6.0316    -4.9838     0.3036 H       
  34 H34            8.5266    -5.0265     0.0119 H       
  35 H35            8.6988    -5.0604     1.7832 H       
  36 H36            6.6850    -4.6763     3.1156 H       
  37 H37            7.8959    -9.3695     0.8847 H       
  38 H38            9.9104   -10.7661     0.6626 H       
  39 H39           12.3303    -7.2486     0.4924 H       
  40 H40           10.3153    -5.8519     0.7101 H       
  41 H41           12.5957   -10.0733    -0.4727 H       
  42 H42            2.8892    -2.5605     0.7880 H       
  43 H43            2.8313    -2.4017    -0.9843 H       
  44 H44            4.6873    -3.8952    -0.2552 H       
  45 H45            5.2994    -2.4422    -1.0821 H       
  46 H46            6.3015    -0.7772     2.0225 H       
  47 H47            6.2436    -0.6184     0.2501 H       
  48 H48            4.4455     0.7163     1.2933 H       
  49 H49            3.8334    -0.7367     2.1202 H       
  50 H50           -0.8536     3.6354    -0.5962 H       
  51 H51           -2.4197     3.5567     0.2460 H       
  52 H52           -0.9042     3.4860     1.1768 H       
@<TRIPOS>BOND
   1    1    2 ar
   2    1    3 ar
   3    1   25 1
   4    2    6 ar
   5    2   27 1
   6    3    4 ar
   7    3   28 1
   8    4    5 ar
   9    4   29 1
  10    5    6 ar
  11    5    7 1
  12    6   30 1
  13    7   20 1
  14    7   24 1
  15    8    9 1
  16    8   22 1
  17    8   31 1
  18    8   32 1
  19    9   11 1
  20    9   10 1
  21    9   33 1
  22   10   12 1
  23   10   34 1
  24   10   35 1
  25   11   36 1
  26   12   13 1
  27   13   14 ar
  28   13   18 ar
  29   14   15 ar
  30   14   37 1
  31   15   16 ar
  32   15   38 1
  33   16   17 ar
  34   16   19 1
  35   17   18 ar
  36   17   39 1
  37   18   40 1
  38   19   41 1
  39   20   21 1
  40   20   42 1
  41   20   43 1
  42   21   22 1
  43   21   44 1
  44   21   45 1
  45   22   23 1
  46   23   24 1
  47   23   46 1
  48   23   47 1
  49   24   48 1
  50   24   49 1
  51   25   26 1
  52   26   50 1
  53   26   51 1
  54   26   52 1

#	End of record

