#	Name: ASD03240310
#	Creating user name:	WinNT
#	Creation time:	15. 06. 2019 20:34

#	Modifying user name:	WinNT
#	Modification time:	15. 06. 2019 20:34

#	Program:	/corina/corina34_cracker 3.40 0067  02.08.2006

@<TRIPOS>MOLECULE
ASD03240310
  91   97    0    0    0
SMALL
NO_CHARGES


@<TRIPOS>ATOM
   1 C1            -0.1142     1.2183    -0.6104 C.2     
   2 N2            -0.0097    -0.0234    -0.0295 N.pl3   
   3 C3            -3.6698     2.2405    -0.0315 C.3     
   4 C4            -2.4758     1.2896     0.0739 C.3     
   5 N5            -1.3115     1.8934    -0.5788 N.pl3   
   6 N6             0.9231     1.7578    -1.1864 N.2     
   7 N7            -4.8341     1.6367     0.6212 N.pl3   
   8 C8            -6.0435     2.3186     0.6532 C.ar    
   9 C9            -7.1583     1.7403     1.2782 C.ar    
  10 C10           -8.3651     2.4249     1.3081 C.ar    
  11 C11           -8.4626     3.6854     0.7158 C.ar    
  12 C12           -7.3460     4.2541     0.0949 C.ar    
  13 C13           -6.1476     3.5768     0.0707 C.ar    
  14 C14           -9.7434     4.4169     0.7445 C.2     
  15 N15           -9.8373     5.6337     0.1727 N.am    
  16 O16          -10.7144     3.9220     1.2841 O.2     
  17 C17          -11.0782     6.2799     0.1007 C.ar    
  18 C18          -11.1492     7.6617     0.2183 C.ar    
  19 C19          -12.2365     5.5390    -0.0939 C.ar    
  20 C20          -13.4594     6.1758    -0.1653 C.ar    
  21 C21          -13.5312     7.5573    -0.0420 C.ar    
  22 C22          -12.3721     8.2986     0.1479 C.ar    
  23 N23          -14.7703     8.2027    -0.1148 N.pl3   
  24 C24          -14.8459     9.6599     0.0152 C.3     
  25 C25          -15.9922     7.4212    -0.3211 C.3     
  26 C26           -7.0476     0.4006     1.9050 C.ar    
  27 C27           -7.4970     0.1991     3.2088 C.ar    
  28 C28           -7.3920    -1.0497     3.7868 C.ar    
  29 C29           -6.8415    -2.1002     3.0749 C.ar    
  30 C30           -6.3934    -1.9058     1.7807 C.ar    
  31 C31           -6.4992    -0.6628     1.1904 C.ar    
  32 C32          -16.5633     7.0199     1.0144 C.ar    
  33 C33          -14.7198    10.2930    -1.3465 C.ar    
  34 C34          -17.4583     7.8371     1.6336 C.ar    
  35 C35          -17.9932     7.4657     2.8790 C.ar    
  36 C36          -17.5906     6.2427     3.4711 C.ar    
  37 C37          -16.6638     5.4252     2.8018 C.ar    
  38 C38          -16.1713     5.8147     1.5944 C.ar    
  39 C39          -15.8397    10.5253    -2.0840 C.ar    
  40 C40          -15.7257    11.1159    -3.3542 C.ar    
  41 C41          -14.4426    11.4609    -3.8473 C.ar    
  42 C42          -13.3090    11.2053    -3.0569 C.ar    
  43 C43          -13.4584    10.6371    -1.8293 C.ar    
  44 C44          -16.8591    11.3707    -4.1452 C.ar    
  45 C45          -16.7101    11.9438    -5.3705 C.ar    
  46 C46          -15.4482    12.2827    -5.8556 C.ar    
  47 C47          -14.3285    12.0517    -5.1174 C.ar    
  48 C48          -18.9192     8.2835     3.5489 C.ar    
  49 C49          -19.4157     7.8914     4.7539 C.ar    
  50 C50          -19.0194     6.6889     5.3364 C.ar    
  51 C51          -18.1255     5.8711     4.7165 C.ar    
  52 H52            0.8361    -0.4980    -0.0484 H       
  53 H53           -0.7816    -0.4249     0.3991 H       
  54 H54           -3.4274     3.1838     0.4580 H       
  55 H55           -3.8965     2.4239    -1.0818 H       
  56 H56           -2.2491     1.1061     1.1242 H       
  57 H57           -2.7183     0.3463    -0.4155 H       
  58 H58           -1.3853     2.7694    -0.9886 H       
  59 H59            1.7688     1.2832    -1.2053 H       
  60 H60           -4.7603     0.7606     1.0310 H       
  61 H61           -9.2263     1.9838     1.7878 H       
  62 H62           -7.4229     5.2291    -0.3632 H       
  63 H63           -5.2881     4.0204    -0.4098 H       
  64 H64           -9.0458     6.0621    -0.1890 H       
  65 H65          -10.2478     8.2382     0.3653 H       
  66 H66          -12.1806     4.4647    -0.1898 H       
  67 H67          -14.3601     5.5996    -0.3174 H       
  68 H68          -12.4278     9.3729     0.2438 H       
  69 H69          -15.8034     9.9361     0.4570 H       
  70 H70          -14.0360    10.0101     0.6552 H       
  71 H71          -16.7218     8.0238    -0.8620 H       
  72 H72          -15.7586     6.5275    -0.8998 H       
  73 H73           -7.9263     1.0188     3.7658 H       
  74 H74           -7.7399    -1.2070     4.7971 H       
  75 H75           -6.7610    -3.0757     3.5313 H       
  76 H76           -5.9642    -2.7295     1.2296 H       
  77 H77           -6.1493    -0.5122     0.1798 H       
  78 H78          -17.7556     8.7663     1.1704 H       
  79 H79          -16.3478     4.4906     3.2411 H       
  80 H80          -15.4595     5.1845     1.0819 H       
  81 H81          -16.8109    10.2568    -1.6954 H       
  82 H82          -12.3250    11.4628    -3.4198 H       
  83 H83          -12.5857    10.4420    -1.2237 H       
  84 H84          -17.8432    11.1128    -3.7826 H       
  85 H85          -17.5827    12.1385    -5.9763 H       
  86 H86          -15.3577    12.7359    -6.8318 H       
  87 H87          -13.3572    12.3198    -5.5060 H       
  88 H88          -19.2349     9.2184     3.1100 H       
  89 H89          -20.1272     8.5218     5.2666 H       
  90 H90          -19.4282     6.4015     6.2938 H       
  91 H91          -17.8278     4.9420     5.1797 H       
@<TRIPOS>BOND
   1    1    2 1
   2    1    6 2
   3    1    5 1
   4    2   52 1
   5    2   53 1
   6    3    4 1
   7    3    7 1
   8    3   54 1
   9    3   55 1
  10    4    5 1
  11    4   56 1
  12    4   57 1
  13    5   58 1
  14    6   59 1
  15    7    8 1
  16    7   60 1
  17    8    9 ar
  18    8   13 ar
  19    9   10 ar
  20    9   26 1
  21   10   11 ar
  22   10   61 1
  23   11   12 ar
  24   11   14 1
  25   12   13 ar
  26   12   62 1
  27   13   63 1
  28   14   15 am
  29   14   16 2
  30   15   17 1
  31   15   64 1
  32   17   18 ar
  33   17   19 ar
  34   18   22 ar
  35   18   65 1
  36   19   20 ar
  37   19   66 1
  38   20   21 ar
  39   20   67 1
  40   21   22 ar
  41   21   23 1
  42   22   68 1
  43   23   24 1
  44   23   25 1
  45   24   33 1
  46   24   69 1
  47   24   70 1
  48   25   32 1
  49   25   71 1
  50   25   72 1
  51   26   27 ar
  52   26   31 ar
  53   27   28 ar
  54   27   73 1
  55   28   29 ar
  56   28   74 1
  57   29   30 ar
  58   29   75 1
  59   30   31 ar
  60   30   76 1
  61   31   77 1
  62   32   34 ar
  63   32   38 ar
  64   33   39 ar
  65   33   43 ar
  66   34   35 ar
  67   34   78 1
  68   35   36 ar
  69   35   48 ar
  70   36   37 ar
  71   36   51 ar
  72   37   38 ar
  73   37   79 1
  74   38   80 1
  75   39   40 ar
  76   39   81 1
  77   40   41 ar
  78   40   44 ar
  79   41   42 ar
  80   41   47 ar
  81   42   43 ar
  82   42   82 1
  83   43   83 1
  84   44   45 ar
  85   44   84 1
  86   45   46 ar
  87   45   85 1
  88   46   47 ar
  89   46   86 1
  90   47   87 1
  91   48   49 ar
  92   48   88 1
  93   49   50 ar
  94   49   89 1
  95   50   51 ar
  96   50   90 1
  97   51   91 1

#	End of record

