#	Name: ASD00110019
#	Creating user name:	WinNT
#	Creation time:	15. 06. 2019 18:30

#	Modifying user name:	WinNT
#	Modification time:	15. 06. 2019 18:30

#	Program:	/corina/corina34_cracker 3.40 0067  02.08.2006

@<TRIPOS>MOLECULE
ASD00110019
  74   76    0    0    0
SMALL
NO_CHARGES


@<TRIPOS>ATOM
   1 C1             0.2059     1.3423    -0.0979 C.3     
   2 C2             1.3845     3.5358     0.0841 C.3     
   3 C3             0.6317     4.0497    -1.1160 C.2     
   4 N4             1.1767     3.9542    -2.3449 N.am    
   5 O5            -0.4645     4.5492    -0.9759 O.2     
   6 C6             0.4219     4.4025    -3.5178 C.3     
   7 C7             1.3936     4.8984    -4.5906 C.3     
   8 O8             0.6571     5.4775    -5.6696 O.3     
   9 C9            -0.3985     3.2363    -4.0726 C.3     
  10 O10           -1.0094     3.6269    -5.3040 O.3     
  11 C11            0.3909    -0.1751    -0.1645 C.3     
  12 C12           -0.9716    -0.8475    -0.3440 C.3     
  13 N13            0.6222     3.8324     1.3037 N.3     
  14 C14           -0.7153     3.2285     1.2539 C.3     
  15 C15           -0.5861     1.7064     1.1609 C.3     
  16 C16            1.5765     2.0229    -0.0438 C.3     
  17 C17           -1.4833     2.8509    -3.0648 C.3     
  18 C18           -0.1750     6.5740    -5.2859 C.3     
  19 C19            2.3257     5.9524    -3.9872 C.3     
  20 C20            1.4943     7.1521    -3.5227 C.3     
  21 C21            0.6941     7.6953    -4.7105 C.3     
  22 S22           -1.0730     7.1889    -6.7372 S.3     
  23 O23            1.5930     8.1667    -5.7163 O.3     
  24 O24            0.5967     6.7404    -2.4898 O.3     
  25 O25            3.0209     5.3924    -2.8714 O.3     
  26 C26           -2.2494     5.8527    -7.0854 C.3     
  27 C27           -0.7867    -2.3648    -0.4107 C.3     
  28 C28           -2.1567    -3.0437    -0.4647 C.3     
  29 C29           -1.9718    -4.5611    -0.5314 C.3     
  30 C30           -1.1734    -4.9229    -1.7854 C.3     
  31 C31            0.1966    -4.2440    -1.7314 C.3     
  32 C32            0.0117    -2.7267    -1.6647 C.3     
  33 H33           -0.3351     1.6824    -0.9809 H       
  34 H34            2.3586     4.0221     0.1374 H       
  35 H35            2.0687     3.5886    -2.4529 H       
  36 H36           -0.2474     5.2135    -3.2309 H       
  37 H37            1.9840     4.0606    -4.9615 H       
  38 H38            0.2558     2.3820    -4.2465 H       
  39 H39           -1.6064     4.3834    -5.2242 H       
  40 H40            1.0339    -0.4260    -1.0082 H       
  41 H41            0.8504    -0.5260     0.7595 H       
  42 H42           -1.6146    -0.5966     0.4996 H       
  43 H43           -1.4311    -0.4966    -1.2681 H       
  44 H44            1.1242     3.5321     2.1259 H       
  45 H45           -1.2665     3.4917     2.1567 H       
  46 H46           -1.2500     3.6016     0.3804 H       
  47 H47           -1.5789     1.2594     1.1082 H       
  48 H48           -0.0637     1.3311     2.0409 H       
  49 H49            2.1329     1.6526     0.8172 H       
  50 H50            2.1288     1.8021    -0.9572 H       
  51 H51           -2.0863     3.7273    -2.8271 H       
  52 H52           -2.1200     2.0775    -3.4944 H       
  53 H53           -1.0165     2.4734    -2.1551 H       
  54 H54           -0.8879     6.2426    -4.5309 H       
  55 H55            3.0443     6.2767    -4.7398 H       
  56 H56            2.1569     7.9299    -3.1432 H       
  57 H57            0.0575     8.5147    -4.3766 H       
  58 H58            1.1537     8.5256    -6.4995 H       
  59 H59            0.0378     7.4517    -2.1479 H       
  60 H60            3.6306     6.0063    -2.4394 H       
  61 H61           -2.8533     6.1173    -7.9534 H       
  62 H62           -1.7032     4.9318    -7.2898 H       
  63 H63           -2.8986     5.7061    -6.2222 H       
  64 H64           -0.2476    -2.7043     0.4738 H       
  65 H65           -2.7255    -2.7859     0.4287 H       
  66 H66           -2.6958    -2.7042    -1.3491 H       
  67 H67           -1.4327    -4.9006     0.3531 H       
  68 H68           -2.9478    -5.0447    -0.5699 H       
  69 H69           -1.0417    -6.0039    -1.8329 H       
  70 H70           -1.7125    -4.5834    -2.6698 H       
  71 H71            0.7357    -4.5835    -0.8469 H       
  72 H72            0.7653    -4.5018    -2.6248 H       
  73 H73           -0.5274    -2.3872    -2.5492 H       
  74 H74            0.9877    -2.2430    -1.6262 H       
@<TRIPOS>BOND
   1    1   11 1
   2    1   16 1
   3    1   15 1
   4    1   33 1
   5    2    3 1
   6    2   13 1
   7    2   16 1
   8    2   34 1
   9    3    4 am
  10    3    5 2
  11    4    6 1
  12    4   35 1
  13    6    9 1
  14    6    7 1
  15    6   36 1
  16    7   19 1
  17    7    8 1
  18    7   37 1
  19    8   18 1
  20    9   10 1
  21    9   17 1
  22    9   38 1
  23   10   39 1
  24   11   12 1
  25   11   40 1
  26   11   41 1
  27   12   27 1
  28   12   42 1
  29   12   43 1
  30   13   14 1
  31   13   44 1
  32   14   15 1
  33   14   45 1
  34   14   46 1
  35   15   47 1
  36   15   48 1
  37   16   49 1
  38   16   50 1
  39   17   51 1
  40   17   52 1
  41   17   53 1
  42   18   22 1
  43   18   21 1
  44   18   54 1
  45   19   20 1
  46   19   25 1
  47   19   55 1
  48   20   21 1
  49   20   24 1
  50   20   56 1
  51   21   23 1
  52   21   57 1
  53   22   26 1
  54   23   58 1
  55   24   59 1
  56   25   60 1
  57   26   61 1
  58   26   62 1
  59   26   63 1
  60   27   28 1
  61   27   32 1
  62   27   64 1
  63   28   29 1
  64   28   65 1
  65   28   66 1
  66   29   30 1
  67   29   67 1
  68   29   68 1
  69   30   31 1
  70   30   69 1
  71   30   70 1
  72   31   32 1
  73   31   71 1
  74   31   72 1
  75   32   73 1
  76   32   74 1

#	End of record

