#	Name: ASD01812651
#	Creating user name:	WinNT
#	Creation time:	15. 06. 2019 19:29

#	Modifying user name:	WinNT
#	Modification time:	15. 06. 2019 19:29

#	Program:	/corina/corina34_cracker 3.40 0067  02.08.2006

@<TRIPOS>MOLECULE
ASD01812651
  53   57    0    0    0
SMALL
NO_CHARGES


@<TRIPOS>ATOM
   1 O1             0.2422     0.8080     0.1160 O.3     
   2 C2             0.1130    -0.5408     0.0535 C.ar    
   3 C3             1.2402    -1.3478     0.0111 C.ar    
   4 C4             1.1106    -2.7212    -0.0526 C.ar    
   5 C5            -0.1469    -3.3048    -0.0742 C.ar    
   6 C6            -1.2731    -2.5181    -0.0323 C.ar    
   7 C7            -1.1609    -1.1266     0.0372 C.ar    
   8 C8            -2.7497    -2.8259    -0.0408 C.3     
   9 N9            -3.4382    -1.5316     0.0224 N.am    
  10 C10           -2.5167    -0.5543     0.0755 C.2     
  11 C11           -4.8901    -1.3371     0.0368 C.3     
  12 O12           -2.7674     0.6340     0.1337 O.2     
  13 C13            1.4961     1.3278     0.1352 C.ar    
  14 C14            2.1535     1.5354     1.3549 C.ar    
  15 C15            1.5063     1.2004     2.5877 C.1     
  16 C16            2.1355     1.6511    -1.0544 C.ar    
  17 C17            3.4128     2.1800    -1.0323 C.ar    
  18 C18            4.0628     2.3905     0.1727 C.ar    
  19 C19            3.4443     2.0707     1.3619 C.ar    
  20 C20           -5.3828    -1.3370     1.4610 C.ar    
  21 C21           -5.4489    -0.1505     2.1682 C.ar    
  22 C22           -5.9001    -0.1472     3.4736 C.ar    
  23 C23           -6.2874    -1.3368     4.0757 C.ar    
  24 C24           -6.2198    -2.5265     3.3632 C.ar    
  25 C25           -5.7732    -2.5225     2.0562 C.ar    
  26 N26           -6.7452    -1.3368     5.4006 N.pl3   
  27 N27           -6.4281    -2.2832     6.3835 N.2     
  28 C28           -7.0417    -1.9502     7.4902 C.2     
  29 C29           -7.7723    -0.7809     7.2565 C.2     
  30 C30           -7.5717    -0.4148     5.9626 C.2     
  31 N31            0.9930     0.9346     3.5656 N.1     
  32 F32            1.5093     1.4482    -2.2342 F       
  33 O33           -8.1017     0.6711     5.3441 O.3     
  34 C34           -9.0436     1.4463     6.0884 C.3     
  35 H35            2.2230    -0.9004     0.0276 H       
  36 H36            1.9927    -3.3435    -0.0860 H       
  37 H37           -0.2416    -4.3794    -0.1244 H       
  38 H38           -3.0182    -3.3487    -0.9588 H       
  39 H39           -3.0111    -3.4322     0.8265 H       
  40 H40           -5.1337    -0.3837    -0.4319 H       
  41 H41           -5.3705    -2.1459    -0.5138 H       
  42 H42            3.9066     2.4300    -1.9597 H       
  43 H43            5.0606     2.8038     0.1801 H       
  44 H44            3.9569     2.2333     2.2985 H       
  45 H45           -5.1472     0.7744     1.6994 H       
  46 H46           -5.9511     0.7797     4.0255 H       
  47 H47           -6.5201    -3.4534     3.8290 H       
  48 H48           -5.7249    -3.4469     1.4998 H       
  49 H49           -6.9925    -2.4876     8.4258 H       
  50 H50           -8.3842    -0.2589     7.9772 H       
  51 H51           -9.3310     2.3235     5.5087 H       
  52 H52           -9.9271     0.8428     6.2964 H       
  53 H53           -8.5911     1.7639     7.0278 H       
@<TRIPOS>BOND
   1    1    2 1
   2    1   13 1
   3    2    3 ar
   4    2    7 ar
   5    3    4 ar
   6    3   35 1
   7    4    5 ar
   8    4   36 1
   9    5    6 ar
  10    5   37 1
  11    6    8 1
  12    6    7 ar
  13    7   10 1
  14    8    9 1
  15    8   38 1
  16    8   39 1
  17    9   10 am
  18    9   11 1
  19   10   12 2
  20   11   20 1
  21   11   40 1
  22   11   41 1
  23   13   16 ar
  24   13   14 ar
  25   14   15 1
  26   14   19 ar
  27   15   31 3
  28   16   17 ar
  29   16   32 1
  30   17   18 ar
  31   17   42 1
  32   18   19 ar
  33   18   43 1
  34   19   44 1
  35   20   21 ar
  36   20   25 ar
  37   21   22 ar
  38   21   45 1
  39   22   23 ar
  40   22   46 1
  41   23   24 ar
  42   23   26 1
  43   24   25 ar
  44   24   47 1
  45   25   48 1
  46   26   27 1
  47   26   30 1
  48   27   28 2
  49   28   29 1
  50   28   49 1
  51   29   30 2
  52   29   50 1
  53   30   33 1
  54   33   34 1
  55   34   51 1
  56   34   52 1
  57   34   53 1

#	End of record

