#	Name: ASD06140026
#	Creating user name:	WinNT
#	Creation time:	15. 06. 2019 21:05

#	Modifying user name:	WinNT
#	Modification time:	15. 06. 2019 21:05

#	Program:	/corina/corina34_cracker 3.40 0067  02.08.2006

@<TRIPOS>MOLECULE
ASD06140026
  35   37    0    0    0
SMALL
NO_CHARGES


@<TRIPOS>ATOM
   1 C1             1.7365     1.0722     2.8117 C.ar    
   2 C2             1.6856    -0.2844     2.5582 C.ar    
   3 C3             1.5698    -0.7426     1.2522 C.ar    
   4 C4             1.5055     0.1648     0.2040 C.ar    
   5 C5             1.5569     1.5229     0.4632 C.ar    
   6 C6             1.6724     1.9756     1.7669 C.ar    
   7 F7             1.4945     2.4077    -0.5559 F       
   8 N8             1.5185    -2.1187     0.9933 N.am    
   9 C9             0.3456    -2.7626     1.0004 C.2     
  10 C10            2.6284    -2.7898     0.7346 C.2     
  11 C11            2.4419    -4.2209     0.4802 C.2     
  12 S12            0.6902    -4.4621     0.6343 S.3     
  13 O13            3.7234    -2.2582     0.7092 O.2     
  14 S14           -1.1930    -2.0765     1.3052 S.2     
  15 C15            3.3951    -5.1529     0.1894 C.2     
  16 C16            3.0253    -6.4951    -0.0264 C.2     
  17 C17            3.9539    -7.3983    -0.4207 C.2     
  18 C18            5.3080    -6.9516    -0.7789 C.ar    
  19 C19            6.4140    -7.7600    -0.4931 C.ar    
  20 C20            5.4974    -5.7184    -1.4126 C.ar    
  21 C21            6.7704    -5.3071    -1.7456 C.ar    
  22 C22            7.8595    -6.1106    -1.4551 C.ar    
  23 C23            7.6804    -7.3340    -0.8327 C.ar    
  24 H24            1.8220     1.4281     3.8278 H       
  25 H25            1.7361    -0.9889     3.3752 H       
  26 H26            1.4159    -0.1887    -0.8125 H       
  27 H27            1.7127     3.0360     1.9678 H       
  28 H28            4.4331    -4.8616     0.1247 H       
  29 H29            2.0011    -6.8037     0.1226 H       
  30 H30            3.6999    -8.4467    -0.4720 H       
  31 H31            6.2759    -8.7147    -0.0076 H       
  32 H32            4.6486    -5.0907    -1.6405 H       
  33 H33            6.9183    -4.3557    -2.2347 H       
  34 H34            8.8542    -5.7828    -1.7189 H       
  35 H35            8.5354    -7.9548    -0.6092 H       
@<TRIPOS>BOND
   1    1    2 ar
   2    1    6 ar
   3    1   24 1
   4    2    3 ar
   5    2   25 1
   6    3    4 ar
   7    3    8 1
   8    4    5 ar
   9    4   26 1
  10    5    6 ar
  11    5    7 1
  12    6   27 1
  13    8    9 am
  14    8   10 am
  15    9   14 2
  16    9   12 1
  17   10   11 1
  18   10   13 2
  19   11   12 1
  20   11   15 2
  21   15   16 1
  22   15   28 1
  23   16   17 2
  24   16   29 1
  25   17   18 1
  26   17   30 1
  27   18   19 ar
  28   18   20 ar
  29   19   23 ar
  30   19   31 1
  31   20   21 ar
  32   20   32 1
  33   21   22 ar
  34   21   33 1
  35   22   23 ar
  36   22   34 1
  37   23   35 1

#	End of record

