#	Name: ASD01880548
#	Creating user name:	WinNT
#	Creation time:	15. 06. 2019 19:40

#	Modifying user name:	WinNT
#	Modification time:	15. 06. 2019 19:40

#	Program:	/corina/corina34_cracker 3.40 0067  02.08.2006

@<TRIPOS>MOLECULE
ASD01880548
  39   41    0    0    0
SMALL
NO_CHARGES


@<TRIPOS>ATOM
   1 N1            -0.0158     1.3114     0.0093 N.ar    
   2 C2             0.0021    -0.0041     0.0020 C.ar    
   3 N3             1.1306    -0.6865    -0.0124 N.ar    
   4 C4             2.3017    -0.0691    -0.0203 C.ar    
   5 C5             2.3343     1.3187    -0.0131 C.ar    
   6 C6             1.1203     2.0081     0.0021 C.ar    
   7 C7             3.6455     2.0615    -0.0212 C.3     
   8 O8             4.0476     2.3035    -1.3709 O.3     
   9 C9             5.2166     2.9676    -1.5559 C.ar    
  10 C10            5.6670     3.2363    -2.8448 C.ar    
  11 C11            6.8494     3.9085    -3.0305 C.ar    
  12 C12            7.6064     4.3262    -1.9309 C.ar    
  13 C13            7.1493     4.0541    -0.6385 C.ar    
  14 C14            5.9599     3.3837    -0.4578 C.ar    
  15 C15            7.6047     4.3494    -4.2595 C.3     
  16 N16            8.8121     5.0290    -3.7765 N.am    
  17 C17            8.8091     5.0133    -2.4325 C.2     
  18 O18            9.6756     5.4976    -1.7305 O.2     
  19 Cl19           3.7774    -0.9833    -0.0387 Cl      
  20 C20           10.5850     7.7119    -5.7826 C.3     
  21 C21            9.5007     7.0885    -4.9014 C.3     
  22 C22            9.8504     5.6258    -4.6202 C.3     
  23 C23            1.0963     3.4399     0.0096 C.1     
  24 N24            1.0772     4.5757     0.0155 N.1     
  25 H25           -0.9350    -0.5410     0.0084 H       
  26 H26            3.5278     3.0121     0.4988 H       
  27 H27            4.4050     1.4634     0.4825 H       
  28 H28            5.0872     2.9161    -3.6979 H       
  29 H29            7.7263     4.3719     0.2173 H       
  30 H30            5.6071     3.1740     0.5412 H       
  31 H31            7.8779     3.4833    -4.8623 H       
  32 H32            6.9965     5.0380    -4.8461 H       
  33 H33           11.5449     7.6601    -5.2689 H       
  34 H34           10.6468     7.1656    -6.7239 H       
  35 H35           10.3358     8.7539    -5.9830 H       
  36 H36            9.4389     7.6347    -3.9602 H       
  37 H37            8.5407     7.1403    -5.4152 H       
  38 H38           10.8103     5.5741    -4.1065 H       
  39 H39            9.9122     5.0796    -5.5615 H       
@<TRIPOS>BOND
   1    1    2 ar
   2    1    6 ar
   3    2    3 ar
   4    2   25 1
   5    3    4 ar
   6    4    5 ar
   7    4   19 1
   8    5    6 ar
   9    5    7 1
  10    6   23 1
  11    7    8 1
  12    7   26 1
  13    7   27 1
  14    8    9 1
  15    9   10 ar
  16    9   14 ar
  17   10   11 ar
  18   10   28 1
  19   11   12 ar
  20   11   15 1
  21   12   13 ar
  22   12   17 1
  23   13   14 ar
  24   13   29 1
  25   14   30 1
  26   15   16 1
  27   15   31 1
  28   15   32 1
  29   16   17 am
  30   16   22 1
  31   17   18 2
  32   20   21 1
  33   20   33 1
  34   20   34 1
  35   20   35 1
  36   21   22 1
  37   21   36 1
  38   21   37 1
  39   22   38 1
  40   22   39 1
  41   23   24 3

#	End of record

