#	Name: ASD01152410
#	Creating user name:	WinNT
#	Creation time:	15. 06. 2019 19:05

#	Modifying user name:	WinNT
#	Modification time:	15. 06. 2019 19:05

#	Program:	/corina/corina34_cracker 3.40 0067  02.08.2006

@<TRIPOS>MOLECULE
ASD01152410
  55   57    0    0    0
SMALL
NO_CHARGES


@<TRIPOS>ATOM
   1 C1            -0.4379     1.3774     0.1178 C.2     
   2 N2            -0.3474     0.0883    -0.0774 N.2     
   3 N3            -1.3482    -0.7615     0.4084 N.am    
   4 C4            -2.4074    -0.2713     1.0760 C.2     
   5 N5            -2.5388     1.0498     1.2979 N.am    
   6 C6            -1.5956     1.9066     0.8545 C.2     
   7 O7            -1.7071     3.1024     1.0512 O.2     
   8 O8            -3.2613    -1.0342     1.4858 O.2     
   9 C9            -1.2450    -2.1406     0.1958 C.ar    
  10 C10           -3.7036     1.5572     2.0274 C.3     
  11 C11           -3.3950     1.5958     3.5020 C.ar    
  12 C12           -2.3296    -2.8500    -0.3004 C.ar    
  13 C13           -0.0545    -2.8006     0.4759 C.ar    
  14 C14            0.0483    -4.1618     0.2654 C.ar    
  15 C15           -1.0316    -4.8719    -0.2237 C.ar    
  16 C16           -2.2229    -4.2175    -0.5102 C.ar    
  17 C17           -2.8370     2.7321     4.0722 C.ar    
  18 C18           -3.6696     0.5036     4.3007 C.ar    
  19 N19           -3.4037     0.5263     5.5929 N.ar    
  20 C20           -2.8666     1.5888     6.1727 C.ar    
  21 C21           -2.5692     2.7263     5.4294 C.ar    
  22 N22           -2.6034     1.5695     7.5375 N.pl3   
  23 C23           -2.1122     2.7771     8.2059 C.3     
  24 C24           -2.8171     0.3416     8.3074 C.3     
  25 C25           -1.5330    -0.4902     8.3076 C.3     
  26 O26            0.5252     2.2149    -0.3476 O.3     
  27 C27            1.6196     1.6197    -1.0477 C.3     
  28 N28           -3.3159    -4.9374    -1.0054 N.am    
  29 C29           -3.5425    -6.1959    -0.5797 C.2     
  30 O30           -2.7528    -6.7352     0.1663 O.2     
  31 C31           -4.7771    -6.9331    -1.0308 C.3     
  32 H32           -3.9407     2.5625     1.6794 H       
  33 H33           -4.5563     0.9013     1.8517 H       
  34 H34           -3.2547    -2.3390    -0.5224 H       
  35 H35            0.7913    -2.2484     0.8582 H       
  36 H36            0.9748    -4.6722     0.4832 H       
  37 H37           -0.9479    -5.9361    -0.3875 H       
  38 H38           -2.6167     3.6009     3.4696 H       
  39 H39           -4.1081    -0.3806     3.8622 H       
  40 H40           -2.1310     3.5915     5.9045 H       
  41 H41           -2.9583     3.3646     8.5624 H       
  42 H42           -1.4842     2.4947     9.0508 H       
  43 H43           -1.5288     3.3703     7.5018 H       
  44 H44           -3.0845     0.5975     9.3326 H       
  45 H45           -3.6236    -0.2353     7.8548 H       
  46 H46           -1.2657    -0.7461     7.2824 H       
  47 H47           -0.7265     0.0867     8.7602 H       
  48 H48           -1.6920    -1.4038     8.8805 H       
  49 H49            2.1337     0.9188    -0.3900 H       
  50 H50            1.2452     1.0887    -1.9230 H       
  51 H51            2.3145     2.3974    -1.3643 H       
  52 H52           -3.9104    -4.5306    -1.6549 H       
  53 H53           -5.3613    -6.2930    -1.6919 H       
  54 H54           -4.4855    -7.8374    -1.5650 H       
  55 H55           -5.3774    -7.2022    -0.1618 H       
@<TRIPOS>BOND
   1    1    2 2
   2    1   26 1
   3    1    6 1
   4    2    3 1
   5    3    4 am
   6    3    9 1
   7    4    5 am
   8    4    8 2
   9    5    6 am
  10    5   10 1
  11    6    7 2
  12    9   12 ar
  13    9   13 ar
  14   10   11 1
  15   10   32 1
  16   10   33 1
  17   11   17 ar
  18   11   18 ar
  19   12   16 ar
  20   12   34 1
  21   13   14 ar
  22   13   35 1
  23   14   15 ar
  24   14   36 1
  25   15   16 ar
  26   15   37 1
  27   16   28 1
  28   17   21 ar
  29   17   38 1
  30   18   19 ar
  31   18   39 1
  32   19   20 ar
  33   20   21 ar
  34   20   22 1
  35   21   40 1
  36   22   23 1
  37   22   24 1
  38   23   41 1
  39   23   42 1
  40   23   43 1
  41   24   25 1
  42   24   44 1
  43   24   45 1
  44   25   46 1
  45   25   47 1
  46   25   48 1
  47   26   27 1
  48   27   49 1
  49   27   50 1
  50   27   51 1
  51   28   29 am
  52   28   52 1
  53   29   30 2
  54   29   31 1
  55   31   53 1
  56   31   54 1
  57   31   55 1

#	End of record

