#	Name: ASD01884234
#	Creating user name:	WinNT
#	Creation time:	15. 06. 2019 19:47

#	Modifying user name:	WinNT
#	Modification time:	15. 06. 2019 19:47

#	Program:	/corina/corina34_cracker 3.40 0067  02.08.2006

@<TRIPOS>MOLECULE
ASD01884234
  41   44    0    0    0
SMALL
NO_CHARGES


@<TRIPOS>ATOM
   1 C1            -0.3592     1.6666    -0.6719 C.ar    
   2 C2            -0.2444     0.2773    -0.7255 C.ar    
   3 C3            -1.3345    -0.5254    -0.4976 C.ar    
   4 C4            -2.5910     0.0297    -0.2056 C.ar    
   5 C5            -2.6903     1.4221    -0.1553 C.ar    
   6 C6            -1.5964     2.2351    -0.3780 C.ar    
   7 N7            -3.7757    -0.6375     0.0466 N.am    
   8 C8            -4.8729     0.0795     0.3069 C.2     
   9 S9            -4.3796     1.7791     0.2305 S.3     
  10 C10            0.8233     2.5279    -0.9189 C.ar    
  11 O11           -5.9865    -0.3488     0.5476 O.2     
  12 C12           -3.8270    -2.1015     0.0282 C.3     
  13 C13           -4.0212    -2.5870    -1.4097 C.3     
  14 C14            2.0595     1.9527    -1.2067 C.ar    
  15 C15            3.1562     2.7587    -1.4356 C.ar    
  16 C16            3.0301     4.1350    -1.3792 C.ar    
  17 C17            1.8054     4.7113    -1.0939 C.ar    
  18 C18            0.7006     3.9151    -0.8694 C.ar    
  19 C19           -3.9366    -4.1225    -1.4635 C.3     
  20 C20           -5.2964    -4.6204    -1.9954 C.3     
  21 C21           -5.8628    -3.4114    -2.7806 C.3     
  22 C22           -5.4294    -2.2054    -1.9107 C.3     
  23 H23            0.7121    -0.1715    -0.9491 H       
  24 H24           -1.2243    -1.5988    -0.5438 H       
  25 H25           -1.7018     3.3090    -0.3326 H       
  26 H26           -2.8942    -2.5028     0.4243 H       
  27 H27           -4.6597    -2.4436     0.6428 H       
  28 H28           -3.2621    -2.1483    -2.0573 H       
  29 H29            2.1593     0.8782    -1.2503 H       
  30 H30            4.1148     2.3140    -1.6587 H       
  31 H31            3.8910     4.7620    -1.5582 H       
  32 H32            1.7125     5.7865    -1.0511 H       
  33 H33           -0.2552     4.3661    -0.6471 H       
  34 H34           -3.1370    -4.4290    -2.1380 H       
  35 H35           -3.7572    -4.5218    -0.4653 H       
  36 H36           -5.1572    -5.4744    -2.6582 H       
  37 H37           -5.9569    -4.8816    -1.1686 H       
  38 H38           -5.4164    -3.3520    -3.7732 H       
  39 H39           -6.9493    -3.4689    -2.8474 H       
  40 H40           -6.1114    -2.0766    -1.0702 H       
  41 H41           -5.3873    -1.2970    -2.5117 H       
@<TRIPOS>BOND
   1    1    2 ar
   2    1   10 1
   3    1    6 ar
   4    2    3 ar
   5    2   23 1
   6    3    4 ar
   7    3   24 1
   8    4    5 ar
   9    4    7 1
  10    5    6 ar
  11    5    9 1
  12    6   25 1
  13    7    8 am
  14    7   12 1
  15    8    9 1
  16    8   11 2
  17   10   14 ar
  18   10   18 ar
  19   12   13 1
  20   12   26 1
  21   12   27 1
  22   13   19 1
  23   13   22 1
  24   13   28 1
  25   14   15 ar
  26   14   29 1
  27   15   16 ar
  28   15   30 1
  29   16   17 ar
  30   16   31 1
  31   17   18 ar
  32   17   32 1
  33   18   33 1
  34   19   20 1
  35   19   34 1
  36   19   35 1
  37   20   21 1
  38   20   36 1
  39   20   37 1
  40   21   22 1
  41   21   38 1
  42   21   39 1
  43   22   40 1
  44   22   41 1

#	End of record

