#	Name: ASD01840184
#	Creating user name:	WinNT
#	Creation time:	15. 06. 2019 19:37

#	Modifying user name:	WinNT
#	Modification time:	15. 06. 2019 19:37

#	Program:	/corina/corina34_cracker 3.40 0067  02.08.2006

@<TRIPOS>MOLECULE
ASD01840184
  44   47    0    0    0
SMALL
NO_CHARGES


@<TRIPOS>ATOM
   1 C1            -1.7094     1.4880    -0.1417 C.3     
   2 C2            -1.7852    -0.0482    -0.0795 C.3     
   3 N3            -1.2526    -0.7136    -1.2710 N.am    
   4 C4            -1.6809    -1.9480    -1.6017 C.2     
   5 C5            -1.1493    -2.6121    -2.7910 C.2     
   6 O6            -2.5104    -2.5101    -0.9101 O.2     
   7 C7            -1.5154    -3.8499    -3.2066 C.2     
   8 C8            -0.8451    -4.2894    -4.4164 C.ar    
   9 C9             0.0509    -3.3301    -4.9070 C.ar    
  10 S10            0.0393    -1.9099    -3.8709 S.3     
  11 C11           -0.9654    -5.4987    -5.1384 C.ar    
  12 C12           -0.1980    -5.6554    -6.2717 C.ar    
  13 N13            0.6216    -4.6930    -6.6586 N.ar    
  14 N14            0.7433    -3.5905    -6.0184 N.ar    
  15 C15           -0.2929    -6.9283    -7.0728 C.3     
  16 C16           -1.9049    -6.5847    -4.6815 C.3     
  17 N17           -2.4486    -4.6276    -2.5345 N.pl3   
  18 C18           -0.7768     0.0475     1.0796 C.3     
  19 N19           -0.3826     1.3497     0.4983 N.3     
  20 C20           -0.2056     2.3115     1.4976 C.ar    
  21 C21           -1.1809     2.4920     2.4697 C.ar    
  22 C22            0.9483     3.0839     1.5229 C.ar    
  23 C23            1.1210     4.0334     2.5110 C.ar    
  24 C24            0.1447     4.2156     3.4758 C.ar    
  25 C25           -1.0040     3.4427     3.4559 C.ar    
  26 F26            0.3159     5.1446     4.4416 F       
  27 H27           -1.6685     1.8850    -1.1560 H       
  28 H28           -2.4482     1.9898     0.4831 H       
  29 H29           -2.7629    -0.4275     0.2176 H       
  30 H30           -0.5917    -0.2657    -1.8220 H       
  31 H31           -1.0678    -6.8228    -7.8321 H       
  32 H32            0.6642    -7.1260    -7.5554 H       
  33 H33           -0.5438    -7.7567    -6.4103 H       
  34 H34           -2.9075    -6.3793    -5.0566 H       
  35 H35           -1.5632    -7.5460    -5.0653 H       
  36 H36           -1.9237    -6.6144    -3.5920 H       
  37 H37           -2.6537    -4.4435    -1.6045 H       
  38 H38           -2.8955    -5.3551    -2.9949 H       
  39 H39           -1.2428     0.1279     2.0617 H       
  40 H40            0.0094    -0.7066     1.0411 H       
  41 H41           -2.0772     1.8897     2.4543 H       
  42 H42            1.7102     2.9419     0.7708 H       
  43 H43            2.0184     4.6340     2.5313 H       
  44 H44           -1.7624     3.5837     4.2118 H       
@<TRIPOS>BOND
   1    1    2 1
   2    1   19 1
   3    1   27 1
   4    1   28 1
   5    2    3 1
   6    2   18 1
   7    2   29 1
   8    3    4 am
   9    3   30 1
  10    4    5 1
  11    4    6 2
  12    5    7 2
  13    5   10 1
  14    7    8 1
  15    7   17 1
  16    8    9 ar
  17    8   11 ar
  18    9   10 1
  19    9   14 ar
  20   11   12 ar
  21   11   16 1
  22   12   13 ar
  23   12   15 1
  24   13   14 ar
  25   15   31 1
  26   15   32 1
  27   15   33 1
  28   16   34 1
  29   16   35 1
  30   16   36 1
  31   17   37 1
  32   17   38 1
  33   18   19 1
  34   18   39 1
  35   18   40 1
  36   19   20 1
  37   20   22 ar
  38   20   21 ar
  39   21   25 ar
  40   21   41 1
  41   22   23 ar
  42   22   42 1
  43   23   24 ar
  44   23   43 1
  45   24   25 ar
  46   24   26 1
  47   25   44 1

#	End of record

