#	Name: ASD05143312
#	Creating user name:	WinNT
#	Creation time:	15. 06. 2019 20:57

#	Modifying user name:	WinNT
#	Modification time:	15. 06. 2019 20:57

#	Program:	/corina/corina34_cracker 3.40 0067  02.08.2006

@<TRIPOS>MOLECULE
ASD05143312
  48   50    0    0    0
SMALL
NO_CHARGES


@<TRIPOS>ATOM
   1 C1            -0.1504     1.4512     0.1327 C.2     
   2 N2             0.0748     0.1958    -0.2006 N.2     
   3 S3            -1.4543    -0.5411    -0.2787 S.3     
   4 C4            -2.3221     0.8855     0.1434 C.2     
   5 N5            -1.4056     1.8118     0.3180 N.2     
   6 N6            -3.6916     1.0257     0.2753 N.pl3   
   7 C7            -4.2285     2.2236     0.7561 C.ar    
   8 C8            -5.5253     2.5975     0.4262 C.ar    
   9 N9            -6.0346     3.7260     0.8775 N.ar    
  10 C10           -5.3438     4.5394     1.6525 C.ar    
  11 C11           -4.0473     4.2363     2.0242 C.ar    
  12 C12           -3.4734     3.0572     1.5776 C.ar    
  13 C13            1.2916    -0.3935    -0.4361 C.ar    
  14 C14            1.6822    -1.5119     0.3023 C.ar    
  15 C15            2.1396     0.1203    -1.4187 C.ar    
  16 C16            3.3614    -0.4747    -1.6521 C.ar    
  17 C17            3.7484    -1.5836    -0.9119 C.ar    
  18 C18            2.9057    -2.1010     0.0626 C.ar    
  19 C19            0.9611     2.4159     0.2984 C.ar    
  20 C20            0.7722     3.7613    -0.0183 C.ar    
  21 C21            2.1976     1.9823     0.7771 C.ar    
  22 C22            3.2302     2.8830     0.9301 C.ar    
  23 C23            3.0402     4.2205     0.6089 C.ar    
  24 C24            1.8091     4.6565     0.1372 C.ar    
  25 O25            4.9534    -2.1676    -1.1455 O.3     
  26 C26            5.2887    -3.3049    -0.3479 C.3     
  27 O27            4.0596     5.1056     0.7617 O.3     
  28 C28            3.7956     6.4659     0.4124 C.3     
  29 H29           -4.2796     0.2928     0.0343 H       
  30 H30           -6.1217     1.9572    -0.2068 H       
  31 H31           -5.7973     5.4554     2.0014 H       
  32 H32           -3.4898     4.9088     2.6592 H       
  33 H33           -2.4625     2.7949     1.8527 H       
  34 H34            1.0272    -1.9149     1.0605 H       
  35 H35            1.8390     0.9825    -1.9955 H       
  36 H36            4.0181    -0.0778    -2.4121 H       
  37 H37            3.2104    -2.9638     0.6363 H       
  38 H38           -0.1850     4.1011    -0.3851 H       
  39 H39            2.3459     0.9423     1.0277 H       
  40 H40            4.1877     2.5480     1.3005 H       
  41 H41            1.6649     5.6974    -0.1120 H       
  42 H42            5.3002    -3.0202     0.7042 H       
  43 H43            4.5480    -4.0892    -0.5040 H       
  44 H44            6.2736    -3.6728    -0.6355 H       
  45 H45            3.5134     6.5228    -0.6389 H       
  46 H46            2.9814     6.8477     1.0284 H       
  47 H47            4.6906     7.0647     0.5814 H       
  48 Br48          11.2736    12.0647     7.6592 Br      
@<TRIPOS>BOND
   1    1    2 2
   2    1   19 1
   3    1    5 1
   4    2    3 1
   5    2   13 1
   6    3    4 1
   7    4    5 2
   8    4    6 1
   9    6    7 1
  10    6   29 1
  11    7    8 ar
  12    7   12 ar
  13    8    9 ar
  14    8   30 1
  15    9   10 ar
  16   10   11 ar
  17   10   31 1
  18   11   12 ar
  19   11   32 1
  20   12   33 1
  21   13   14 ar
  22   13   15 ar
  23   14   18 ar
  24   14   34 1
  25   15   16 ar
  26   15   35 1
  27   16   17 ar
  28   16   36 1
  29   17   18 ar
  30   17   25 1
  31   18   37 1
  32   19   20 ar
  33   19   21 ar
  34   20   24 ar
  35   20   38 1
  36   21   22 ar
  37   21   39 1
  38   22   23 ar
  39   22   40 1
  40   23   24 ar
  41   23   27 1
  42   24   41 1
  43   25   26 1
  44   26   42 1
  45   26   43 1
  46   26   44 1
  47   27   28 1
  48   28   45 1
  49   28   46 1
  50   28   47 1

#	End of record

