#	Name: ASD01180257
#	Creating user name:	WinNT
#	Creation time:	15. 06. 2019 19:07

#	Modifying user name:	WinNT
#	Modification time:	15. 06. 2019 19:07

#	Program:	/corina/corina34_cracker 3.40 0067  02.08.2006

@<TRIPOS>MOLECULE
ASD01180257
  60   62    0    0    0
SMALL
NO_CHARGES


@<TRIPOS>ATOM
   1 C1            -0.0184     1.5028     0.0103 C.2     
   2 C2             0.0021    -0.0041     0.0020 C.3     
   3 C3             1.4513    -0.4944    -0.0145 C.3     
   4 O4             1.0197     2.1211     0.0037 O.2     
   5 O5            -1.1898     2.1580     0.0194 O.3     
   6 C6             2.6473    -2.6171    -0.0373 C.2     
   7 O7             3.6919    -1.9949    -0.0439 O.2     
   8 N8             1.4712    -1.9592    -0.0225 N.am    
   9 C9             2.7037    -6.7740    -0.0593 C.ar    
  10 N10            3.8547    -6.1143    -0.0672 N.ar    
  11 C11            3.8796    -4.7949    -0.0607 C.ar    
  12 C12            2.6673    -4.0925    -0.0454 C.ar    
  13 C13            1.4746    -4.8276    -0.0375 C.ar    
  14 N14            1.5353    -6.1458    -0.0447 N.ar    
  15 N15            2.7224    -8.1531    -0.0723 N.pl3   
  16 C16            1.4638    -8.9028    -0.0639 C.3     
  17 C17            0.9438    -9.0425    -1.4960 C.3     
  18 C18            0.5878    -7.6600    -2.0464 C.3     
  19 C19            0.0678    -7.7997    -3.4786 C.3     
  20 C20            2.1295   -12.7862     1.5961 C.ar    
  21 C21            0.9695   -12.0810     1.9103 C.ar    
  22 C22            0.7596   -10.8278     1.3713 C.ar    
  23 C23            1.6983   -10.2717     0.5211 C.ar    
  24 C24            2.8513   -10.9676     0.2055 C.ar    
  25 C25            3.0715   -12.2214     0.7387 C.ar    
  26 C26            2.3635   -14.1314     2.1773 C.ar    
  27 C27            3.5234   -14.8366     1.8632 C.ar    
  28 C28            3.7360   -16.0874     2.4066 C.ar    
  29 C29            2.8000   -16.6411     3.2613 C.ar    
  30 C30            1.6465   -15.9456     3.5762 C.ar    
  31 C31            1.4269   -14.6913     3.0437 C.ar    
  32 C32            3.0374   -18.0074     3.8512 C.3     
  33 F33            3.7247   -17.8792     5.0629 F       
  34 F34            1.8091   -18.6381     4.0762 F       
  35 F35            3.7989   -18.7733     2.9619 F       
  36 H36           -0.4983    -0.3791     0.8948 H       
  37 H37           -0.5153    -0.3696    -0.8850 H       
  38 H38            1.9516    -0.1193    -0.9073 H       
  39 H39            1.9686    -0.1289     0.8726 H       
  40 H40           -1.1523     3.1243     0.0245 H       
  41 H41            0.6378    -2.4556    -0.0172 H       
  42 H42            4.8203    -4.2644    -0.0669 H       
  43 H43            0.5199    -4.3230    -0.0253 H       
  44 H44            3.5688    -8.6266    -0.0870 H       
  45 H45            0.7281    -8.3710     0.5395 H       
  46 H46            1.7148    -9.4945    -2.1200 H       
  47 H47            0.0560    -9.6749    -1.5002 H       
  48 H48           -0.1832    -7.2080    -1.4224 H       
  49 H49            1.4756    -7.0277    -2.0423 H       
  50 H50           -0.1858    -6.8148    -3.8707 H       
  51 H51            0.8388    -8.2517    -4.1026 H       
  52 H52           -0.8200    -8.4321    -3.4827 H       
  53 H53            0.2360   -12.5142     2.5740 H       
  54 H54           -0.1391   -10.2803     1.6141 H       
  55 H55            3.5808   -10.5289    -0.4592 H       
  56 H56            3.9724   -12.7636     0.4922 H       
  57 H57            4.2546   -14.4055     1.1954 H       
  58 H58            4.6347   -16.6349     2.1638 H       
  59 H59            0.9188   -16.3828     4.2438 H       
  60 H60            0.5284   -14.1469     3.2943 H       
@<TRIPOS>BOND
   1    1    2 1
   2    1    4 2
   3    1    5 1
   4    2    3 1
   5    2   36 1
   6    2   37 1
   7    3    8 1
   8    3   38 1
   9    3   39 1
  10    5   40 1
  11    6    7 2
  12    6    8 am
  13    6   12 1
  14    8   41 1
  15    9   10 ar
  16    9   14 ar
  17    9   15 1
  18   10   11 ar
  19   11   12 ar
  20   11   42 1
  21   12   13 ar
  22   13   14 ar
  23   13   43 1
  24   15   16 1
  25   15   44 1
  26   16   17 1
  27   16   23 1
  28   16   45 1
  29   17   18 1
  30   17   46 1
  31   17   47 1
  32   18   19 1
  33   18   48 1
  34   18   49 1
  35   19   50 1
  36   19   51 1
  37   19   52 1
  38   20   21 ar
  39   20   25 ar
  40   20   26 1
  41   21   22 ar
  42   21   53 1
  43   22   23 ar
  44   22   54 1
  45   23   24 ar
  46   24   25 ar
  47   24   55 1
  48   25   56 1
  49   26   27 ar
  50   26   31 ar
  51   27   28 ar
  52   27   57 1
  53   28   29 ar
  54   28   58 1
  55   29   30 ar
  56   29   32 1
  57   30   31 ar
  58   30   59 1
  59   31   60 1
  60   32   33 1
  61   32   34 1
  62   32   35 1

#	End of record

