#	Name: ASD01810557
#	Creating user name:	WinNT
#	Creation time:	15. 06. 2019 19:24

#	Modifying user name:	WinNT
#	Modification time:	15. 06. 2019 19:24

#	Program:	/corina/corina34_cracker 3.40 0067  02.08.2006

@<TRIPOS>MOLECULE
ASD01810557
  42   45    0    0    0
SMALL
NO_CHARGES


@<TRIPOS>ATOM
   1 C1            -0.0165     1.3772    -0.0918 C.ar    
   2 C2             0.0024    -0.0008    -0.1470 C.ar    
   3 C3             1.2095    -0.6818    -0.1600 C.ar    
   4 C4             2.4044     0.0057    -0.1180 C.ar    
   5 C5             2.4072     1.3949    -0.0626 C.ar    
   6 C6             1.1829     2.0826    -0.0495 C.ar    
   7 N7             3.6061     2.0913    -0.0198 N.pl3   
   8 C8             3.6674     3.4438     0.0349 C.2     
   9 C9             2.5249     4.2183     0.0519 C.2     
  10 C10            1.2050     3.5562     0.0095 C.2     
  11 C11            2.2568     5.6065     0.1052 C.2     
  12 N12            0.9155     5.7509     0.0948 N.am    
  13 N13            0.2994     4.4967     0.0367 N.2     
  14 C14            0.2082     7.0331     0.1392 C.3     
  15 C15           -0.0171     7.5314    -1.2651 C.ar    
  16 O16            3.0834     6.5043     0.1523 O.2     
  17 C17            4.7533     1.3964    -0.0326 C.2     
  18 C18            0.8164     8.4966    -1.7979 C.ar    
  19 C19            0.6097     8.9538    -3.0862 C.ar    
  20 C20           -0.4302     8.4452    -3.8415 C.ar    
  21 C21           -1.2633     7.4790    -3.3088 C.ar    
  22 C22           -1.0540     7.0188    -2.0224 C.ar    
  23 C23           -1.9621     5.9656    -1.4419 C.3     
  24 C24           -0.6561     8.9442    -5.2454 C.3     
  25 H25           -0.9576     1.9068    -0.0859 H       
  26 H26           -0.9264    -0.5510    -0.1799 H       
  27 H27            1.2145    -1.7610    -0.2030 H       
  28 H28            3.3389    -0.5356    -0.1279 H       
  29 H29            4.6328     3.9271     0.0662 H       
  30 H30           -0.7528     6.9009     0.6364 H       
  31 H31            0.8059     7.7588     0.6908 H       
  32 H32            4.7330     0.3193     0.0441 H       
  33 H33            5.6972     1.9140    -0.1196 H       
  34 H34            1.6289     8.8941    -1.2077 H       
  35 H35            1.2605     9.7086    -3.5023 H       
  36 H36           -2.0760     7.0818    -3.8989 H       
  37 H37           -1.5614     4.9769    -1.6655 H       
  38 H38           -2.0257     6.0960    -0.3616 H       
  39 H39           -2.9562     6.0620    -1.8786 H       
  40 H40           -0.0890     8.3301    -5.9449 H       
  41 H41           -1.7174     8.8835    -5.4862 H       
  42 H42           -0.3252     9.9801    -5.3204 H       
@<TRIPOS>BOND
   1    1    2 ar
   2    1    6 ar
   3    1   25 1
   4    2    3 ar
   5    2   26 1
   6    3    4 ar
   7    3   27 1
   8    4    5 ar
   9    4   28 1
  10    5    6 ar
  11    5    7 1
  12    6   10 1
  13    7    8 1
  14    7   17 1
  15    8    9 2
  16    8   29 1
  17    9   10 1
  18    9   11 1
  19   10   13 2
  20   11   12 am
  21   11   16 2
  22   12   13 1
  23   12   14 1
  24   14   15 1
  25   14   30 1
  26   14   31 1
  27   15   18 ar
  28   15   22 ar
  29   17   32 1
  30   17   33 1
  31   18   19 ar
  32   18   34 1
  33   19   20 ar
  34   19   35 1
  35   20   21 ar
  36   20   24 1
  37   21   22 ar
  38   21   36 1
  39   22   23 1
  40   23   37 1
  41   23   38 1
  42   23   39 1
  43   24   40 1
  44   24   41 1
  45   24   42 1

#	End of record

