#	Name: ASD01411158
#	Creating user name:	WinNT
#	Creation time:	15. 06. 2019 19:19

#	Modifying user name:	WinNT
#	Modification time:	15. 06. 2019 19:19

#	Program:	/corina/corina34_cracker 3.40 0067  02.08.2006

@<TRIPOS>MOLECULE
ASD01411158
  51   54    0    0    0
SMALL
NO_CHARGES


@<TRIPOS>ATOM
   1 C1            -0.0166     1.3732     0.0096 C.ar    
   2 C2             0.0021    -0.0041     0.0020 C.ar    
   3 C3             1.2222    -0.6870    -0.0133 C.ar    
   4 C4             2.4223     0.0378    -0.0208 C.ar    
   5 C5             2.3857     1.4307    -0.0130 C.ar    
   6 C6             1.1690     2.0904     0.0021 C.ar    
   7 C7             1.2465    -2.1606    -0.0209 C.2     
   8 O8             3.5448     2.1417    -0.0198 O.3     
   9 C9             3.4321     3.5662    -0.0111 C.3     
  10 C10            4.8089     4.1790    -0.0204 C.ar    
  11 C11            5.4534     4.4483     1.1726 C.ar    
  12 C12            5.4291     4.4664    -1.2219 C.ar    
  13 C13            6.6918     5.0285    -1.2311 C.ar    
  14 C14            7.3350     5.3035    -0.0374 C.ar    
  15 C15            6.7160     5.0104     1.1647 C.ar    
  16 Cl16           8.9209     6.0094    -0.0481 Cl      
  17 O17            0.0907    -2.8535    -0.0132 O.3     
  18 O18            2.3086    -2.7507    -0.0342 O.2     
  19 N19            3.6446    -0.6309    -0.0356 N.am    
  20 C20            4.3839    -1.0354    -1.2370 C.3     
  21 C21            5.6360    -1.7204    -0.7503 C.ar    
  22 C22            4.3450    -1.0074     1.0482 C.2     
  23 C23            6.7150    -2.3112    -1.4016 C.ar    
  24 C24            7.7513    -2.8786    -0.6491 C.ar    
  25 C25            7.6984    -2.8496     0.7299 C.ar    
  26 C26            6.6293    -2.2642     1.3787 C.ar    
  27 C27            5.5867    -1.6934     0.6422 C.ar    
  28 O28            4.0030    -0.8128     2.1984 O.2     
  29 C29            6.7665    -2.3400    -2.8724 C.2     
  30 C30            7.8142    -2.9136    -3.4996 C.2     
  31 C31            7.8653    -2.9423    -4.9607 C.2     
  32 O32            6.9634    -2.4489    -5.6106 O.2     
  33 O33            8.9130    -3.5159    -5.5879 O.3     
  34 H34           -0.9609     1.8972     0.0169 H       
  35 H35           -0.9259    -0.5566     0.0083 H       
  36 H36            1.1436     3.1701     0.0078 H       
  37 H37            2.8832     3.8927    -0.8943 H       
  38 H38            2.8994     3.8831     0.8855 H       
  39 H39            4.9700     4.2199     2.1110 H       
  40 H40            4.9271     4.2514    -2.1537 H       
  41 H41            7.1764     5.2527    -2.1699 H       
  42 H42            7.2193     5.2211     2.0968 H       
  43 H43            0.1572    -3.8182    -0.0187 H       
  44 H44            3.7852    -1.7265    -1.8303 H       
  45 H45            4.6430    -0.1586    -1.8304 H       
  46 H46            8.5914    -3.3389    -1.1478 H       
  47 H47            8.4995    -3.2886     1.3060 H       
  48 H48            6.5981    -2.2474     2.4581 H       
  49 H49            5.9656    -1.9019    -3.4494 H       
  50 H50            8.6151    -3.3517    -2.9225 H       
  51 H51            8.8580    -3.4862    -6.5529 H       
@<TRIPOS>BOND
   1    1    2 ar
   2    1    6 ar
   3    1   34 1
   4    2    3 ar
   5    2   35 1
   6    3    4 ar
   7    3    7 1
   8    4    5 ar
   9    4   19 1
  10    5    6 ar
  11    5    8 1
  12    6   36 1
  13    7   17 1
  14    7   18 2
  15    8    9 1
  16    9   10 1
  17    9   37 1
  18    9   38 1
  19   10   12 ar
  20   10   11 ar
  21   11   15 ar
  22   11   39 1
  23   12   13 ar
  24   12   40 1
  25   13   14 ar
  26   13   41 1
  27   14   15 ar
  28   14   16 1
  29   15   42 1
  30   17   43 1
  31   19   20 1
  32   19   22 am
  33   20   21 1
  34   20   44 1
  35   20   45 1
  36   21   23 ar
  37   21   27 ar
  38   22   28 2
  39   22   27 1
  40   23   24 ar
  41   23   29 1
  42   24   25 ar
  43   24   46 1
  44   25   26 ar
  45   25   47 1
  46   26   27 ar
  47   26   48 1
  48   29   30 2
  49   29   49 1
  50   30   31 1
  51   30   50 1
  52   31   32 2
  53   31   33 1
  54   33   51 1

#	End of record

