#	Name: ASD01028621
#	Creating user name:	WinNT
#	Creation time:	15. 06. 2019 18:57

#	Modifying user name:	WinNT
#	Modification time:	15. 06. 2019 18:57

#	Program:	/corina/corina34_cracker 3.40 0067  02.08.2006

@<TRIPOS>MOLECULE
ASD01028621
  45   49    0    0    0
SMALL
NO_CHARGES


@<TRIPOS>ATOM
   1 C1            -0.0164     1.3590     0.0095 C.2     
   2 N2             0.0021    -0.0041     0.0020 N.pl3   
   3 C3             1.1472     2.0640     0.0022 C.2     
   4 C4             2.3887     1.3853    -0.0138 C.2     
   5 C5             2.4116     0.0258    -0.0213 C.2     
   6 C6             1.1933    -0.6865    -0.0130 C.2     
   7 N7             0.8963    -1.9758    -0.0173 N.2     
   8 N8            -0.3820    -2.1221    -0.0057 N.2     
   9 C9            -0.9719    -0.9546     0.0054 C.2     
  10 C10           -3.7524    -0.5252    -2.0870 C.ar    
  11 C11           -3.0823    -1.3193    -1.2069 C.ar    
  12 C12           -2.9654    -2.6900    -1.4267 C.ar    
  13 C13           -3.5165    -3.2747    -2.5254 C.ar    
  14 C14           -4.2164    -2.4883    -3.4568 C.ar    
  15 C15           -4.3343    -1.0943    -3.2308 C.ar    
  16 N16           -4.7686    -3.0347    -4.5448 N.ar    
  17 C17           -5.4227    -2.3059    -5.4161 C.ar    
  18 C18           -5.5755    -0.9304    -5.2541 C.ar    
  19 C19           -5.0357    -0.3083    -4.1647 C.ar    
  20 C20            1.1143     3.5477     0.0104 C.ar    
  21 C21           -2.4584    -0.7073     0.0209 C.3     
  22 C22            1.6185     4.2515     1.1019 C.ar    
  23 C23            1.5858     5.6337     1.1054 C.ar    
  24 C24            1.0524     6.3186     0.0261 C.ar    
  25 C25            0.5496     5.6228    -1.0608 C.ar    
  26 C26            0.5844     4.2407    -1.0757 C.ar    
  27 F27            2.0744     6.3173     2.1633 F       
  28 F28            0.0300     6.2958    -2.1108 F       
  29 F29            3.5889    -0.6365    -0.0360 F       
  30 C30           -3.0680    -1.3415     1.2727 C.3     
  31 H31           -0.9609     1.8827     0.0168 H       
  32 H32            3.3130     1.9439    -0.0203 H       
  33 H33           -3.8398     0.5356    -1.9037 H       
  34 H34           -2.4285    -3.2985    -0.7140 H       
  35 H35           -3.4160    -4.3386    -2.6812 H       
  36 H36           -5.8544    -2.7842    -6.2829 H       
  37 H37           -6.1196    -0.3566    -5.9897 H       
  38 H38           -5.1441     0.7569    -4.0234 H       
  39 H39           -2.6481     0.3661     0.0282 H       
  40 H40            2.0339     3.7183     1.9441 H       
  41 H41            1.0281     7.3983     0.0323 H       
  42 H42            0.1924     3.6990    -1.9238 H       
  43 H43           -2.6168    -0.8988     2.1607 H       
  44 H44           -4.1431    -1.1626     1.2839 H       
  45 H45           -2.8783    -2.4148     1.2654 H       
@<TRIPOS>BOND
   1    1    2 1
   2    1    3 2
   3    1   31 1
   4    2    6 1
   5    2    9 1
   6    3    4 1
   7    3   20 1
   8    4    5 2
   9    4   32 1
  10    5    6 1
  11    5   29 1
  12    6    7 2
  13    7    8 1
  14    8    9 2
  15    9   21 1
  16   10   11 ar
  17   10   15 ar
  18   10   33 1
  19   11   12 ar
  20   11   21 1
  21   12   13 ar
  22   12   34 1
  23   13   14 ar
  24   13   35 1
  25   14   15 ar
  26   14   16 ar
  27   15   19 ar
  28   16   17 ar
  29   17   18 ar
  30   17   36 1
  31   18   19 ar
  32   18   37 1
  33   19   38 1
  34   20   22 ar
  35   20   26 ar
  36   21   30 1
  37   21   39 1
  38   22   23 ar
  39   22   40 1
  40   23   24 ar
  41   23   27 1
  42   24   25 ar
  43   24   41 1
  44   25   26 ar
  45   25   28 1
  46   26   42 1
  47   30   43 1
  48   30   44 1
  49   30   45 1

#	End of record

