#	Name: ASD01810094
#	Creating user name:	WinNT
#	Creation time:	15. 06. 2019 19:23

#	Modifying user name:	WinNT
#	Modification time:	15. 06. 2019 19:23

#	Program:	/corina/corina34_cracker 3.40 0067  02.08.2006

@<TRIPOS>MOLECULE
ASD01810094
  61   65    0    0    0
SMALL
NO_CHARGES


@<TRIPOS>ATOM
   1 C1             0.0341     1.3006    -0.1496 C.ar    
   2 C2             0.0659    -0.0839    -0.1641 C.ar    
   3 C3             1.2758    -0.7529    -0.1641 C.ar    
   4 C4             2.4612    -0.0345    -0.1500 C.ar    
   5 C5             2.4285     1.3616    -0.1358 C.ar    
   6 C6             1.2109     2.0241    -0.1354 C.ar    
   7 N7             3.8037    -0.4058    -0.1466 N.am    
   8 C8             4.5532     0.7125    -0.1311 C.2     
   9 N9             3.7527     1.7950    -0.1242 N.am    
  10 O10            5.7698     0.7406    -0.1242 O.2     
  11 C11            4.1980     3.1906    -0.1082 C.3     
  12 C12            5.0344     3.4465     1.1486 C.3     
  13 C13            5.5472     4.8882     1.1294 C.3     
  14 N14            6.3608     5.1037    -0.0739 N.3     
  15 C15            5.5664     4.9099    -1.2937 C.3     
  16 C16            5.0541     3.4688    -1.3468 C.3     
  17 C17            6.9836     6.4341    -0.0571 C.3     
  18 C18            7.9190     6.5744    -1.2601 C.3     
  19 C19            8.5928     7.9496    -1.2203 C.3     
  20 N20            7.5523     8.9839    -1.1411 N.am    
  21 C21            6.5459     8.8933    -0.0746 C.3     
  22 C22            5.8950     7.5075    -0.1272 C.3     
  23 C23            7.5219     9.9968    -2.0297 C.2     
  24 O24            8.4033    10.1036    -2.8600 O.2     
  25 C25            6.4166    10.9780    -1.9946 C.ar    
  26 C26            5.6448    11.2053    -3.1349 C.ar    
  27 C27            4.6143    12.1221    -3.0953 C.ar    
  28 C28            4.3459    12.8155    -1.9288 C.ar    
  29 C29            5.1074    12.5949    -0.7946 C.ar    
  30 C30            6.1367    11.6769    -0.8191 C.ar    
  31 Cl31          -1.4191    -0.9828    -0.1819 Cl      
  32 C32            5.9365    10.4515    -4.4069 C.3     
  33 F33            5.0360    10.8486    -5.4012 F       
  34 F34            7.2430    10.7280    -4.8236 F       
  35 F35            5.8012     9.0783    -4.1765 F       
  36 H36           -0.9145     1.8169    -0.1538 H       
  37 H37            1.2972    -1.8327    -0.1748 H       
  38 H38            1.1823     3.1037    -0.1248 H       
  39 H39            4.1411    -1.3152    -0.1537 H       
  40 H40            3.3301     3.8500    -0.1086 H       
  41 H41            4.4178     3.2913     2.0339 H       
  42 H42            5.8805     2.7595     1.1688 H       
  43 H43            4.7007     5.5748     1.1232 H       
  44 H44            6.1550     5.0693     2.0160 H       
  45 H45            4.7197     5.5964    -1.2885 H       
  46 H46            6.1881     5.1068    -2.1671 H       
  47 H47            5.9005     2.7822    -1.3659 H       
  48 H48            4.4516     3.3297    -2.2444 H       
  49 H49            7.5548     6.5560     0.8632 H       
  50 H50            8.6802     5.7951    -1.2220 H       
  51 H51            7.3443     6.4774    -2.1812 H       
  52 H52            9.2397     8.0143    -0.3454 H       
  53 H53            9.1831     8.0936    -2.1252 H       
  54 H54            7.0258     9.0350     0.8938 H       
  55 H55            5.7855     9.6600    -0.2235 H       
  56 H56            5.3393     7.4017    -1.0590 H       
  57 H57            5.2156     7.3924     0.7173 H       
  58 H58            4.0163    12.2989    -3.9771 H       
  59 H59            3.5386    13.5325    -1.9033 H       
  60 H60            4.8926    13.1395     0.1129 H       
  61 H61            6.7300    11.5054     0.0668 H       
@<TRIPOS>BOND
   1    1    2 ar
   2    1    6 ar
   3    1   36 1
   4    2    3 ar
   5    2   31 1
   6    3    4 ar
   7    3   37 1
   8    4    5 ar
   9    4    7 1
  10    5    6 ar
  11    5    9 1
  12    6   38 1
  13    7    8 am
  14    7   39 1
  15    8    9 am
  16    8   10 2
  17    9   11 1
  18   11   12 1
  19   11   16 1
  20   11   40 1
  21   12   13 1
  22   12   41 1
  23   12   42 1
  24   13   14 1
  25   13   43 1
  26   13   44 1
  27   14   15 1
  28   14   17 1
  29   15   16 1
  30   15   45 1
  31   15   46 1
  32   16   47 1
  33   16   48 1
  34   17   18 1
  35   17   22 1
  36   17   49 1
  37   18   19 1
  38   18   50 1
  39   18   51 1
  40   19   20 1
  41   19   52 1
  42   19   53 1
  43   20   21 1
  44   20   23 am
  45   21   22 1
  46   21   54 1
  47   21   55 1
  48   22   56 1
  49   22   57 1
  50   23   24 2
  51   23   25 1
  52   25   26 ar
  53   25   30 ar
  54   26   27 ar
  55   26   32 1
  56   27   28 ar
  57   27   58 1
  58   28   29 ar
  59   28   59 1
  60   29   30 ar
  61   29   60 1
  62   30   61 1
  63   32   33 1
  64   32   34 1
  65   32   35 1

#	End of record

