#	Name: ASD01882537
#	Creating user name:	WinNT
#	Creation time:	15. 06. 2019 19:44

#	Modifying user name:	WinNT
#	Modification time:	15. 06. 2019 19:44

#	Program:	/corina/corina34_cracker 3.40 0067  02.08.2006

@<TRIPOS>MOLECULE
ASD01882537
  50   54    0    0    0
SMALL
NO_CHARGES


@<TRIPOS>ATOM
   1 N1             0.7017     2.1774     0.5319 N.am    
   2 C2             0.4188     1.5695    -0.6211 C.2     
   3 C3             1.1496     0.3464    -1.1040 C.3     
   4 N4             2.3559     0.1581    -0.2843 N.pl3   
   5 C5             2.2221     0.3541     1.1691 C.3     
   6 C6             1.7945     1.8017     1.4183 C.3     
   7 O7            -0.4688     2.0235    -1.3120 O.2     
   8 C8            -0.1046     3.2554     0.9139 C.ar    
   9 C9            -1.4298     3.0414     1.2696 C.ar    
  10 C10           -2.2230     4.1074     1.6462 C.ar    
  11 C11           -1.6990     5.3869     1.6688 C.ar    
  12 C12           -0.3798     5.6034     1.3151 C.ar    
  13 C13            0.4203     4.5407     0.9436 C.ar    
  14 C14            4.9656    -1.7398    -2.0372 C.2     
  15 C15            3.7258    -1.4097    -1.4639 C.2     
  16 C16            3.5742    -0.1917    -0.8587 C.2     
  17 C17            4.6617     0.7080    -0.8213 C.2     
  18 C18            5.8417     0.3708    -1.3774 C.2     
  19 N19            6.0032    -0.8410    -1.9832 N.pl3   
  20 N20            6.6463    -2.6230    -3.0085 N.2     
  21 N21            5.4186    -2.8101    -2.6720 N.2     
  22 C22            7.0511    -1.4445    -2.6143 C.2     
  23 C23            2.5777    -2.3844    -1.5152 C.3     
  24 F24            1.7719    -2.0979    -2.6224 F       
  25 F25            3.0762    -3.6869    -1.6259 F       
  26 F26            1.8189    -2.2733    -0.3451 F       
  27 C27            8.4250    -0.8599    -2.8183 C.3     
  28 C28            9.3182    -1.2306    -1.6327 C.3     
  29 C29           10.7925    -0.8281    -1.7059 C.3     
  30 C30            9.8438    -0.0890    -0.7601 C.3     
  31 H31            0.5035    -0.5263    -1.0086 H       
  32 H32            1.4345     0.4796    -2.1476 H       
  33 H33            1.4671    -0.3256     1.5640 H       
  34 H34            3.1790     0.1643     1.6554 H       
  35 H35            2.6434     2.4621     1.2412 H       
  36 H36            1.4692     1.9066     2.4533 H       
  37 H37           -1.8398     2.0424     1.2515 H       
  38 H38           -3.2537     3.9417     1.9229 H       
  39 H39           -2.3215     6.2190     1.9629 H       
  40 H40            0.0265     6.6039     1.3338 H       
  41 H41            1.4519     4.7098     0.6721 H       
  42 H42            4.5472     1.6707    -0.3452 H       
  43 H43            6.6673     1.0662    -1.3434 H       
  44 H44            8.8565    -1.2580    -3.7367 H       
  45 H45            8.3509     0.2251    -2.8921 H       
  46 H46            9.0774    -2.1720    -1.1389 H       
  47 H47           11.5216    -1.5047    -1.2600 H       
  48 H48           11.1261    -0.2993    -2.5988 H       
  49 H49            9.5533     0.9262    -1.0308 H       
  50 H50            9.9488    -0.2792     0.3080 H       
@<TRIPOS>BOND
   1    1    2 am
   2    1    6 1
   3    1    8 1
   4    2    3 1
   5    2    7 2
   6    3    4 1
   7    3   31 1
   8    3   32 1
   9    4    5 1
  10    4   16 1
  11    5    6 1
  12    5   33 1
  13    5   34 1
  14    6   35 1
  15    6   36 1
  16    8    9 ar
  17    8   13 ar
  18    9   10 ar
  19    9   37 1
  20   10   11 ar
  21   10   38 1
  22   11   12 ar
  23   11   39 1
  24   12   13 ar
  25   12   40 1
  26   13   41 1
  27   14   15 1
  28   14   19 1
  29   14   21 2
  30   15   16 2
  31   15   23 1
  32   16   17 1
  33   17   18 2
  34   17   42 1
  35   18   19 1
  36   18   43 1
  37   19   22 1
  38   20   21 1
  39   20   22 2
  40   22   27 1
  41   23   24 1
  42   23   25 1
  43   23   26 1
  44   27   28 1
  45   27   44 1
  46   27   45 1
  47   28   29 1
  48   28   30 1
  49   28   46 1
  50   29   30 1
  51   29   47 1
  52   29   48 1
  53   30   49 1
  54   30   50 1

#	End of record

