#	Name: ASD01208968
#	Creating user name:	WinNT
#	Creation time:	15. 06. 2019 19:10

#	Modifying user name:	WinNT
#	Modification time:	15. 06. 2019 19:10

#	Program:	/corina/corina34_cracker 3.40 0067  02.08.2006

@<TRIPOS>MOLECULE
ASD01208968
  48   51    0    0    0
SMALL
NO_CHARGES


@<TRIPOS>ATOM
   1 C1             0.6098     1.3721    -2.3256 C.3     
   2 C2             0.2582    -0.1225    -2.4273 C.3     
   3 C3            -0.6725    -0.5211    -1.2802 C.3     
   4 C4            -0.8620    -2.0394    -1.2814 C.3     
   5 C5            -1.6346    -2.4501    -0.0544 C.2     
   6 N6            -1.0983    -2.2753     1.1696 N.am    
   7 C7            -1.7648    -2.7485     2.2951 C.2     
   8 N8            -1.6024    -2.4381    -2.4809 N.pl3   
   9 C9            -2.9397    -2.3693    -2.6480 C.2     
  10 C10           -3.2246    -2.8294    -3.8882 C.2     
  11 C11           -2.0202    -3.1919    -4.5000 C.2     
  12 N12           -1.0466    -2.9526    -3.6594 N.2     
  13 O13           -2.7392    -2.9380    -0.1685 O.2     
  14 S14           -1.1975    -2.5991     3.9561 S.3     
  15 C15           -2.6390    -3.4417     4.5204 C.2     
  16 C16           -3.3868    -3.7478     3.4579 C.2     
  17 N17           -2.9064    -3.3656     2.2894 N.2     
  18 F18           -2.9357    -3.7288     5.8067 F       
  19 C19           -0.4576    -0.3158    -3.7801 C.3     
  20 C20            0.0332     0.8733    -4.6428 C.3     
  21 C21            0.0953     2.0349    -3.6202 C.3     
  22 C22           -5.0778    -1.3546    -5.4313 C.3     
  23 C23           -6.4459    -1.0917    -6.0637 C.3     
  24 C24           -6.0447    -0.3645    -4.7787 C.3     
  25 S25           -4.8294    -2.9506    -4.6056 S.o2    
  26 O26           -4.7075    -3.9936    -5.5629 O.2     
  27 O27           -5.7026    -3.0770    -3.4917 O.2     
  28 H28            0.1174     1.8134    -1.4591 H       
  29 H29            1.6896     1.4971    -2.2459 H       
  30 H30            1.1674    -0.7229    -2.3960 H       
  31 H31           -0.2340    -0.2104    -0.3319 H       
  32 H32           -1.6389    -0.0342    -1.4105 H       
  33 H33            0.1128    -2.5272    -1.2771 H       
  34 H34           -0.2474    -1.8195     1.2657 H       
  35 H35           -3.6545    -2.0114    -1.9218 H       
  36 H36           -1.9122    -3.5954    -5.4959 H       
  37 H37           -4.3272    -4.2710     3.5489 H       
  38 H38           -0.1658    -1.2627    -4.2342 H       
  39 H39           -1.5388    -0.2715    -3.6493 H       
  40 H40            1.0210     0.6690    -5.0559 H       
  41 H41           -0.6803     1.0950    -5.4365 H       
  42 H42           -0.8966     2.4588    -3.4636 H       
  43 H43            0.7907     2.8034    -3.9577 H       
  44 H44           -4.2029    -0.9455    -5.9364 H       
  45 H45           -6.4711    -0.5093    -6.9847 H       
  46 H46           -7.1968    -1.8778    -5.9836 H       
  47 H47           -6.5315    -0.6722    -3.8533 H       
  48 H48           -5.8059     0.6963    -4.8544 H       
@<TRIPOS>BOND
   1    1    2 1
   2    1   21 1
   3    1   28 1
   4    1   29 1
   5    2    3 1
   6    2   19 1
   7    2   30 1
   8    3    4 1
   9    3   31 1
  10    3   32 1
  11    4    5 1
  12    4    8 1
  13    4   33 1
  14    5    6 am
  15    5   13 2
  16    6    7 1
  17    6   34 1
  18    7   14 1
  19    7   17 2
  20    8    9 1
  21    8   12 1
  22    9   10 2
  23    9   35 1
  24   10   11 1
  25   10   25 1
  26   11   12 2
  27   11   36 1
  28   14   15 1
  29   15   16 2
  30   15   18 1
  31   16   17 1
  32   16   37 1
  33   19   20 1
  34   19   38 1
  35   19   39 1
  36   20   21 1
  37   20   40 1
  38   20   41 1
  39   21   42 1
  40   21   43 1
  41   22   23 1
  42   22   25 1
  43   22   24 1
  44   22   44 1
  45   23   24 1
  46   23   45 1
  47   23   46 1
  48   24   47 1
  49   24   48 1
  50   25   26 2
  51   25   27 2

#	End of record

