#	Name: ASD03320175
#	Creating user name:	WinNT
#	Creation time:	15. 06. 2019 20:36

#	Modifying user name:	WinNT
#	Modification time:	15. 06. 2019 20:36

#	Program:	/corina/corina34_cracker 3.40 0067  02.08.2006

@<TRIPOS>MOLECULE
ASD03320175
  43   45    0    0    0
SMALL
NO_CHARGES


@<TRIPOS>ATOM
   1 C1            -0.0078     1.3449    -0.1947 C.ar    
   2 C2             0.0216    -0.0349     0.0279 C.ar    
   3 C3            -1.1507    -0.7585     0.0446 C.ar    
   4 C4            -2.3673    -0.1222    -0.1593 C.ar    
   5 C5            -2.4073     1.2599    -0.3831 C.ar    
   6 C6            -1.2278     1.9923    -0.3948 C.ar    
   7 C7             1.2499     2.1173    -0.2120 C.2     
   8 O8             1.2237     3.3175    -0.4056 O.2     
   9 N9             2.4273     1.4923    -0.0131 N.am    
  10 C10            3.6268     2.2061    -0.1264 C.ar    
  11 C11           -3.7073     1.9404    -0.6017 C.ar    
  12 C12            3.6887     3.5305     0.2864 C.ar    
  13 C13            4.8720     4.2335     0.1748 C.ar    
  14 C14            5.9985     3.6172    -0.3500 C.ar    
  15 C15            5.9373     2.2943    -0.7631 C.ar    
  16 C16            4.7564     1.5881    -0.6464 C.ar    
  17 O17            7.1632     4.3102    -0.4600 O.3     
  18 C18            8.2834     3.6134    -1.0092 C.3     
  19 F19            7.9767     3.1855    -2.3054 F       
  20 F20            9.3901     4.4682    -1.0499 F       
  21 F21            8.5801     2.5041    -0.2100 F       
  22 O22           -3.5186    -0.8396    -0.1423 O.3     
  23 C23           -4.6171     1.4463    -1.5339 C.ar    
  24 N24           -5.7718     2.0497    -1.7289 N.ar    
  25 C25           -6.1126     3.1336    -1.0592 C.ar    
  26 C26           -5.2639     3.6858    -0.1169 C.ar    
  27 C27           -4.0417     3.0844     0.1285 C.ar    
  28 C28           -3.4040    -2.2448     0.0910 C.3     
  29 H29            0.9656    -0.5349     0.1868 H       
  30 H30           -1.1229    -1.8243     0.2166 H       
  31 H31           -1.2536     3.0582    -0.5666 H       
  32 H32            2.4439     0.5481     0.2085 H       
  33 H33            2.8116     4.0107     0.6944 H       
  34 H34            4.9203     5.2636     0.4958 H       
  35 H35            6.8146     1.8153    -1.1722 H       
  36 H36            4.7090     0.5581    -0.9677 H       
  37 H37           -4.3734     0.5607    -2.1021 H       
  38 H38           -7.0692     3.5974    -1.2497 H       
  39 H39           -5.5538     4.5740     0.4248 H       
  40 H40           -3.3597     3.4940     0.8589 H       
  41 H41           -2.7905    -2.6939    -0.6900 H       
  42 H42           -2.9383    -2.4151     1.0617 H       
  43 H43           -4.3956    -2.6971     0.0794 H       
@<TRIPOS>BOND
   1    1    2 ar
   2    1    7 1
   3    1    6 ar
   4    2    3 ar
   5    2   29 1
   6    3    4 ar
   7    3   30 1
   8    4    5 ar
   9    4   22 1
  10    5    6 ar
  11    5   11 1
  12    6   31 1
  13    7    8 2
  14    7    9 am
  15    9   10 1
  16    9   32 1
  17   10   12 ar
  18   10   16 ar
  19   11   23 ar
  20   11   27 ar
  21   12   13 ar
  22   12   33 1
  23   13   14 ar
  24   13   34 1
  25   14   15 ar
  26   14   17 1
  27   15   16 ar
  28   15   35 1
  29   16   36 1
  30   17   18 1
  31   18   19 1
  32   18   20 1
  33   18   21 1
  34   22   28 1
  35   23   24 ar
  36   23   37 1
  37   24   25 ar
  38   25   26 ar
  39   25   38 1
  40   26   27 ar
  41   26   39 1
  42   27   40 1
  43   28   41 1
  44   28   42 1
  45   28   43 1

#	End of record

