#	Name: ASD03730193
#	Creating user name:	WinNT
#	Creation time:	15. 06. 2019 20:44

#	Modifying user name:	WinNT
#	Modification time:	15. 06. 2019 20:44

#	Program:	/corina/corina34_cracker 3.40 0067  02.08.2006

@<TRIPOS>MOLECULE
ASD03730193
  53   57    0    0    0
SMALL
NO_CHARGES


@<TRIPOS>ATOM
   1 O1            -0.0175     1.4359     0.0099 O.3     
   2 C2             0.0021    -0.0041     0.0020 C.3     
   3 C3             1.3443    -0.3164    -0.6737 C.3     
   4 C4             2.1585     0.9222    -0.4112 C.ar    
   5 C5             1.2616     1.9063     0.0003 C.ar    
   6 C6             1.7469     3.1699     0.3296 C.ar    
   7 C7             3.0928     3.4468     0.2403 C.ar    
   8 C8             3.9839     2.4616    -0.1809 C.ar    
   9 C9             3.5033     1.1939    -0.5065 C.ar    
  10 N10            2.1539    -2.4046    -1.1299 N.am    
  11 C11            1.9834    -1.5493    -0.1021 C.2     
  12 C12            1.1833    -0.5945    -2.1386 C.ar    
  13 C13            0.6713     0.1273    -3.1938 C.ar    
  14 C14            0.6615    -0.4166    -4.4658 C.ar    
  15 C15            1.1668    -1.6869    -4.6752 C.ar    
  16 C16            1.6801    -2.4142    -3.6217 C.ar    
  17 C17            1.6948    -1.8743    -2.3379 C.ar    
  18 O18            2.2870    -1.7382     1.0568 O.2     
  19 C19            6.3304     1.7796    -0.7037 C.ar    
  20 C20            5.4337     2.7599    -0.2832 C.ar    
  21 C21            5.9221     4.0286     0.0401 C.ar    
  22 C22            7.2831     4.2566    -0.0724 C.ar    
  23 C23            8.1078     3.2312    -0.4970 C.ar    
  24 N24            7.6176     2.0434    -0.7953 N.ar    
  25 C25            2.7512    -3.7356    -0.9956 C.3     
  26 C26            1.6537    -4.7596    -0.6995 C.3     
  27 C27            2.2775    -6.1496    -0.5593 C.3     
  28 C28            1.1800    -7.1737    -0.2631 C.3     
  29 C29            1.8038    -8.5637    -0.1229 C.3     
  30 H30           -0.0199    -0.3969     1.0185 H       
  31 H31           -0.8274    -0.3990    -0.5845 H       
  32 H32            1.0623     3.9382     0.6572 H       
  33 H33            3.4587     4.4300     0.4969 H       
  34 H34            4.1875     0.4248    -0.8334 H       
  35 H35            0.2767     1.1189    -3.0280 H       
  36 H36            0.2599     0.1493    -5.2933 H       
  37 H37            1.1590    -2.1115    -5.6682 H       
  38 H38            2.0724    -3.4058    -3.7929 H       
  39 H39            5.9672     0.7933    -0.9524 H       
  40 H40            5.2548     4.8116     0.3689 H       
  41 H41            7.6961     5.2250     0.1686 H       
  42 H42            9.1699     3.4056    -0.5862 H       
  43 H43            3.2563    -4.0025    -1.9240 H       
  44 H44            3.4725    -3.7294    -0.1784 H       
  45 H45            1.1487    -4.4927     0.2288 H       
  46 H46            0.9325    -4.7658    -1.5167 H       
  47 H47            2.7826    -6.4165    -1.4876 H       
  48 H48            2.9988    -6.1434     0.2580 H       
  49 H49            0.6750    -6.9067     0.6652 H       
  50 H50            0.4588    -7.1799    -1.0803 H       
  51 H51            2.3089    -8.8306    -1.0512 H       
  52 H52            2.5251    -8.5575     0.6943 H       
  53 H53            1.0219    -9.2932     0.0881 H       
@<TRIPOS>BOND
   1    1    2 1
   2    1    5 1
   3    2    3 1
   4    2   30 1
   5    2   31 1
   6    3    4 1
   7    3   11 1
   8    3   12 1
   9    4    5 ar
  10    4    9 ar
  11    5    6 ar
  12    6    7 ar
  13    6   32 1
  14    7    8 ar
  15    7   33 1
  16    8    9 ar
  17    8   20 1
  18    9   34 1
  19   10   11 am
  20   10   17 1
  21   10   25 1
  22   11   18 2
  23   12   13 ar
  24   12   17 ar
  25   13   14 ar
  26   13   35 1
  27   14   15 ar
  28   14   36 1
  29   15   16 ar
  30   15   37 1
  31   16   17 ar
  32   16   38 1
  33   19   20 ar
  34   19   24 ar
  35   19   39 1
  36   20   21 ar
  37   21   22 ar
  38   21   40 1
  39   22   23 ar
  40   22   41 1
  41   23   24 ar
  42   23   42 1
  43   25   26 1
  44   25   43 1
  45   25   44 1
  46   26   27 1
  47   26   45 1
  48   26   46 1
  49   27   28 1
  50   27   47 1
  51   27   48 1
  52   28   29 1
  53   28   49 1
  54   28   50 1
  55   29   51 1
  56   29   52 1
  57   29   53 1

#	End of record

