#	Name: ASD01900228
#	Creating user name:	WinNT
#	Creation time:	15. 06. 2019 19:51

#	Modifying user name:	WinNT
#	Modification time:	15. 06. 2019 19:51

#	Program:	/corina/corina34_cracker 3.40 0067  02.08.2006

@<TRIPOS>MOLECULE
ASD01900228
  58   62    0    0    0
SMALL
NO_CHARGES


@<TRIPOS>ATOM
   1 C1             0.0991     0.3917    -0.1927 C.ar    
   2 C2             0.2503    -0.9701    -0.3477 C.ar    
   3 C3             1.4991    -1.5135    -0.6121 C.ar    
   4 C4             2.6119    -0.6992    -0.7167 C.ar    
   5 C5             2.4774     0.6691    -0.5574 C.ar    
   6 C6             1.2104     1.2244    -0.3038 C.ar    
   7 N7             3.5697     1.5260    -0.6342 N.pl3   
   8 C8             3.3556     2.9070    -1.0815 C.3     
   9 N9             2.1585     3.4645    -0.4510 N.am    
  10 C10            1.0999     2.6854    -0.1524 C.2     
  11 C11            4.5728     3.7555    -0.7018 C.3     
  12 C12            3.1870     2.9257    -2.6033 C.3     
  13 C13            3.0322     4.3731    -3.0758 C.3     
  14 N14            4.2186     5.1460    -2.6869 N.3     
  15 C15            4.3770     5.1795    -1.2275 C.3     
  16 C16            2.1118     4.8324    -0.1526 C.ar    
  17 C17            1.3939     5.6969    -0.9687 C.ar    
  18 C18            1.3474     7.0448    -0.6747 C.ar    
  19 C19            2.0188     7.5366     0.4380 C.ar    
  20 C20            2.7368     6.6713     1.2543 C.ar    
  21 C21            2.7786     5.3227     0.9626 C.ar    
  22 C22            2.8216     9.3568     2.4067 C.3     
  23 S23            1.9601     9.2571     0.8135 S.3     
  24 C24            4.1668     6.5050    -3.2421 C.3     
  25 C25            5.3413     7.3006    -2.7335 C.ar    
  26 C26            6.5636     7.2135    -3.3737 C.ar    
  27 C27            7.6425     7.9436    -2.9073 C.ar    
  28 C28            7.4961     8.7624    -1.7975 C.ar    
  29 C29            6.2714     8.8474    -1.1590 C.ar    
  30 C30            5.1939     8.1209    -1.6309 C.ar    
  31 F31            8.5481     9.4759    -1.3400 F       
  32 F32            8.8373     7.8586    -3.5321 F       
  33 Br33           1.6811    -3.3829    -0.8307 Br      
  34 O34            0.0620     3.1846     0.2385 O.2     
  35 H35           -0.8757     0.8106     0.0093 H       
  36 H36           -0.6093    -1.6182    -0.2624 H       
  37 H37            3.5813    -1.1290    -0.9213 H       
  38 H38            4.4576     1.2164    -0.3961 H       
  39 H39            4.6765     3.7788     0.3830 H       
  40 H40            5.4702     3.3239    -1.1451 H       
  41 H41            4.0650     2.4815    -3.0723 H       
  42 H42            2.2993     2.3561    -2.8782 H       
  43 H43            2.9263     4.3917    -4.1605 H       
  44 H44            2.1463     4.8121    -2.6170 H       
  45 H45            3.4857     5.6143    -0.7752 H       
  46 H46            5.2466     5.7844    -0.9703 H       
  47 H47            0.8724     5.3146    -1.8337 H       
  48 H48            0.7894     7.7171    -1.3096 H       
  49 H49            3.2589     7.0532     2.1192 H       
  50 H50            3.3333     4.6495     1.5994 H       
  51 H51            2.3465     8.6826     3.1194 H       
  52 H52            3.8646     9.0693     2.2743 H       
  53 H53            2.7713    10.3783     2.7837 H       
  54 H54            4.2059     6.4547    -4.3303 H       
  55 H55            3.2397     6.9884    -2.9339 H       
  56 H56            6.6764     6.5752    -4.2376 H       
  57 H57            6.1562     9.4844    -0.2945 H       
  58 H58            4.2372     8.1911    -1.1348 H       
@<TRIPOS>BOND
   1    1    2 ar
   2    1    6 ar
   3    1   35 1
   4    2    3 ar
   5    2   36 1
   6    3    4 ar
   7    3   33 1
   8    4    5 ar
   9    4   37 1
  10    5    7 1
  11    5    6 ar
  12    6   10 1
  13    7    8 1
  14    7   38 1
  15    8    9 1
  16    8   12 1
  17    8   11 1
  18    9   10 am
  19    9   16 1
  20   10   34 2
  21   11   15 1
  22   11   39 1
  23   11   40 1
  24   12   13 1
  25   12   41 1
  26   12   42 1
  27   13   14 1
  28   13   43 1
  29   13   44 1
  30   14   15 1
  31   14   24 1
  32   15   45 1
  33   15   46 1
  34   16   17 ar
  35   16   21 ar
  36   17   18 ar
  37   17   47 1
  38   18   19 ar
  39   18   48 1
  40   19   20 ar
  41   19   23 1
  42   20   21 ar
  43   20   49 1
  44   21   50 1
  45   22   23 1
  46   22   51 1
  47   22   52 1
  48   22   53 1
  49   24   25 1
  50   24   54 1
  51   24   55 1
  52   25   26 ar
  53   25   30 ar
  54   26   27 ar
  55   26   56 1
  56   27   28 ar
  57   27   32 1
  58   28   29 ar
  59   28   31 1
  60   29   30 ar
  61   29   57 1
  62   30   58 1

#	End of record

