#	Name: ASD03331588
#	Creating user name:	WinNT
#	Creation time:	15. 06. 2019 20:39

#	Modifying user name:	WinNT
#	Modification time:	15. 06. 2019 20:39

#	Program:	/corina/corina34_cracker 3.40 0067  02.08.2006

@<TRIPOS>MOLECULE
ASD03331588
  62   64    0    0    0
SMALL
NO_CHARGES


@<TRIPOS>ATOM
   1 C1            -0.0002     0.8303     1.4906 C.ar    
   2 C2             0.0020    -0.5822     1.0512 C.2     
   3 N3            -1.0511    -1.4458     1.1421 N.pl3   
   4 C4            -0.6352    -2.6452     0.6546 C.2     
   5 C5             0.6548    -2.4890     0.2488 C.2     
   6 N6             1.0148    -1.2120     0.5039 N.2     
   7 C7             1.5043    -3.5254    -0.3642 C.2     
   8 O8             1.0624    -4.6434    -0.5481 O.2     
   9 N9             2.7710    -3.2342    -0.7209 N.am    
  10 C10            3.6156    -4.2645    -1.3302 C.3     
  11 C11            5.0654    -3.9390    -1.0788 C.2     
  12 C12           -2.3936    -1.1439     1.6484 C.3     
  13 C13           -3.0267    -2.4266     2.1946 C.3     
  14 C14           -3.7043    -3.1925     1.0603 C.3     
  15 O15           -2.7559    -3.5878     0.0764 O.3     
  16 C16           -1.4630    -3.9026     0.6050 C.3     
  17 C17            3.3570    -4.3102    -2.8375 C.3     
  18 C18            3.6286    -2.9318    -3.4435 C.3     
  19 C19            4.2837    -5.3425    -3.4829 C.3     
  20 C20            1.9004    -4.7019    -3.0935 C.3     
  21 C21            1.2052     1.4895     1.7331 C.ar    
  22 N22            6.0033    -4.8986    -1.2056 N.am    
  23 O23            5.3881    -2.8136    -0.7625 O.2     
  24 C24            7.3982    -4.6090    -0.8644 C.3     
  25 C25            1.1973     2.8085     2.1433 C.ar    
  26 C26           -0.0071     3.4762     2.3143 C.ar    
  27 C27           -1.2058     2.8242     2.0748 C.ar    
  28 C28           -1.2077     1.5092     1.6584 C.ar    
  29 F29           -0.0108     4.7661     2.7161 F       
  30 F30            2.3633     3.4490     2.3786 F       
  31 C31            8.1120    -5.9093    -0.4894 C.3     
  32 C32            8.0963    -3.9729    -2.0682 C.3     
  33 H33            3.1234    -2.3425    -0.5741 H       
  34 H34            3.3795    -5.2341    -0.8916 H       
  35 H35           -2.3240    -0.4041     2.4459 H       
  36 H36           -3.0082    -0.7507     0.8387 H       
  37 H37           -2.2529    -3.0507     2.6416 H       
  38 H38           -3.7673    -2.1710     2.9523 H       
  39 H39           -4.1895    -4.0798     1.4670 H       
  40 H40           -4.4567    -2.5545     0.5967 H       
  41 H41           -0.9748    -4.6356    -0.0373 H       
  42 H42           -1.5691    -4.3095     1.6106 H       
  43 H43            4.6663    -2.6527    -3.2611 H       
  44 H44            3.4444    -2.9643    -4.5173 H       
  45 H45            2.9684    -2.1963    -2.9837 H       
  46 H46            4.0931    -6.3238    -3.0483 H       
  47 H47            4.0967    -5.3779    -4.5562 H       
  48 H48            5.3215    -5.0613    -3.3040 H       
  49 H49            1.2402    -3.9664    -2.6338 H       
  50 H50            1.7162    -4.7343    -4.1674 H       
  51 H51            1.7069    -5.6839    -2.6618 H       
  52 H52            2.1425     0.9696     1.6006 H       
  53 H53            5.7546    -5.7809    -1.5228 H       
  54 H54            7.4303    -3.9204    -0.0201 H       
  55 H55           -2.1405     3.3480     2.2097 H       
  56 H56           -2.1431     1.0025     1.4722 H       
  57 H57            8.0799    -6.5980    -1.3337 H       
  58 H58            9.1499    -5.6939    -0.2355 H       
  59 H59            7.6147    -6.3625     0.3682 H       
  60 H60            7.5878    -3.0466    -2.3353 H       
  61 H61            9.1342    -3.7575    -1.8143 H       
  62 H62            8.0642    -4.6616    -2.9125 H       
@<TRIPOS>BOND
   1    1    2 1
   2    1   21 ar
   3    1   28 ar
   4    2    3 1
   5    2    6 2
   6    3    4 1
   7    3   12 1
   8    4    5 2
   9    4   16 1
  10    5    6 1
  11    5    7 1
  12    7    8 2
  13    7    9 am
  14    9   10 1
  15    9   33 1
  16   10   11 1
  17   10   17 1
  18   10   34 1
  19   11   22 am
  20   11   23 2
  21   12   13 1
  22   12   35 1
  23   12   36 1
  24   13   14 1
  25   13   37 1
  26   13   38 1
  27   14   15 1
  28   14   39 1
  29   14   40 1
  30   15   16 1
  31   16   41 1
  32   16   42 1
  33   17   18 1
  34   17   19 1
  35   17   20 1
  36   18   43 1
  37   18   44 1
  38   18   45 1
  39   19   46 1
  40   19   47 1
  41   19   48 1
  42   20   49 1
  43   20   50 1
  44   20   51 1
  45   21   25 ar
  46   21   52 1
  47   22   24 1
  48   22   53 1
  49   24   31 1
  50   24   32 1
  51   24   54 1
  52   25   26 ar
  53   25   30 1
  54   26   27 ar
  55   26   29 1
  56   27   28 ar
  57   27   55 1
  58   28   56 1
  59   31   57 1
  60   31   58 1
  61   31   59 1
  62   32   60 1
  63   32   61 1
  64   32   62 1

#	End of record

