#	Name: ASD07930625
#	Creating user name:	WinNT
#	Creation time:	15. 06. 2019 21:12

#	Modifying user name:	WinNT
#	Modification time:	15. 06. 2019 21:12

#	Program:	/corina/corina34_cracker 3.40 0067  02.08.2006

@<TRIPOS>MOLECULE
ASD07930625
  48   50    0    0    0
SMALL
NO_CHARGES


@<TRIPOS>ATOM
   1 C1            -0.0343     1.4581     0.0425 C.3     
   2 N2             0.7952    -0.4133    -2.1302 N.2     
   3 N3            -0.8904    -1.7835    -1.2685 N.pl3   
   4 C4            -0.9150    -2.8271    -0.2382 C.3     
   5 C5            -1.2300    -2.1885     1.1215 C.3     
   6 S6             0.0061    -0.8913     1.4435 S.o2    
   7 N7            -0.0141    -0.0067     0.0315 N.am    
   8 C8            -0.0113    -0.7260    -1.1551 C.2     
   9 C9             0.4500    -3.5153    -0.1755 C.3     
  10 C10           -1.9765    -3.8423    -0.5755 C.ar    
  11 C11           -2.8068    -3.6380    -1.6597 C.ar    
  12 C12           -3.7847    -4.5742    -1.9703 C.ar    
  13 C13           -3.9250    -5.7138    -1.1895 C.ar    
  14 C14           -3.0923    -5.9142    -0.1059 C.ar    
  15 C15           -2.1147    -4.9822     0.1989 C.ar    
  16 O16           -0.4576     0.0117     2.4378 O.2     
  17 O17            1.3140    -1.4440     1.5003 O.2     
  18 N18           -4.6276    -4.3691    -3.0684 N.am    
  19 C19           -5.0471    -5.4194    -3.8014 C.2     
  20 O20           -4.6174    -6.5328    -3.5697 O.2     
  21 C21           -6.0293    -5.2177    -4.8864 C.ar    
  22 C22           -6.4676    -6.3083    -5.6506 C.ar    
  23 F23           -1.3009    -5.1803     1.2590 F       
  24 N24           -7.3495    -6.1182    -6.6228 N.ar    
  25 C25           -7.3807    -3.8240    -6.1064 C.ar    
  26 N26           -6.5055    -4.0009    -5.1387 N.ar    
  27 C27           -7.8114    -4.9042    -6.8678 C.ar    
  28 Cl28          -8.9656    -4.6591    -8.1411 Cl      
  29 O29           -5.9921    -7.5508    -5.3974 O.3     
  30 C30           -6.4842    -8.6132    -6.2167 C.3     
  31 H31            0.9882     1.8357     0.0394 H       
  32 H32           -0.5582     1.8209    -0.8419 H       
  33 H33           -0.5480     1.8077     0.9380 H       
  34 H34            1.4070     0.3331    -2.0331 H       
  35 H35           -1.4884    -1.8387    -2.0302 H       
  36 H36           -2.2270    -1.7485     1.0987 H       
  37 H37           -1.1799    -2.9460     1.9037 H       
  38 H38            1.2165    -2.7804     0.0704 H       
  39 H39            0.4311    -4.2908     0.5903 H       
  40 H40            0.6749    -3.9651    -1.1426 H       
  41 H41           -2.6962    -2.7508    -2.2655 H       
  42 H42           -4.6849    -6.4429    -1.4291 H       
  43 H43           -3.2011    -6.8004     0.5017 H       
  44 H44           -4.9098    -3.4709    -3.3020 H       
  45 H45           -7.7658    -2.8356    -6.3093 H       
  46 H46           -6.0240    -9.5522    -5.9092 H       
  47 H47           -7.5662    -8.6856    -6.1067 H       
  48 H48           -6.2376    -8.4121    -7.2592 H       
@<TRIPOS>BOND
   1    1    7 1
   2    1   31 1
   3    1   32 1
   4    1   33 1
   5    2    8 2
   6    2   34 1
   7    3    4 1
   8    3    8 1
   9    3   35 1
  10    4    5 1
  11    4    9 1
  12    4   10 1
  13    5    6 1
  14    5   36 1
  15    5   37 1
  16    6    7 am
  17    6   16 2
  18    6   17 2
  19    7    8 1
  20    9   38 1
  21    9   39 1
  22    9   40 1
  23   10   11 ar
  24   10   15 ar
  25   11   12 ar
  26   11   41 1
  27   12   13 ar
  28   12   18 1
  29   13   14 ar
  30   13   42 1
  31   14   15 ar
  32   14   43 1
  33   15   23 1
  34   18   19 am
  35   18   44 1
  36   19   20 2
  37   19   21 1
  38   21   22 ar
  39   21   26 ar
  40   22   24 ar
  41   22   29 1
  42   24   27 ar
  43   25   26 ar
  44   25   27 ar
  45   25   45 1
  46   27   28 1
  47   29   30 1
  48   30   46 1
  49   30   47 1
  50   30   48 1

#	End of record

