#	Name: ASD04880876
#	Creating user name:	WinNT
#	Creation time:	15. 06. 2019 20:53

#	Modifying user name:	WinNT
#	Modification time:	15. 06. 2019 20:53

#	Program:	/corina/corina34_cracker 3.40 0067  02.08.2006

@<TRIPOS>MOLECULE
ASD04880876
  80   85    0    0    0
SMALL
NO_CHARGES


@<TRIPOS>ATOM
   1 C1             0.6628    -0.5737    -2.2617 C.ar    
   2 C2             0.6769    -1.6074    -3.1798 C.ar    
   3 C3             1.8406    -1.9161    -3.8605 C.ar    
   4 C4             2.9928    -1.1924    -3.6250 C.ar    
   5 C5             2.9821    -0.1531    -2.7031 C.ar    
   6 C6             1.8118     0.1543    -2.0213 C.ar    
   7 N7             4.1459     0.5808    -2.4622 N.3     
   8 C8             4.6081     0.3962    -1.0794 C.3     
   9 C9             5.9247     1.1505    -0.8795 C.3     
  10 N10            5.7203     2.5749    -1.1777 N.3     
  11 C11            5.2581     2.7595    -2.5604 C.3     
  12 C12            3.9415     2.0052    -2.7604 C.3     
  13 C13            6.8805     3.3065    -0.9374 C.ar    
  14 C14            7.5672     3.8864    -1.9975 C.ar    
  15 C15            8.7157     4.6107    -1.7644 C.ar    
  16 C16            9.1937     4.7643    -0.4604 C.ar    
  17 C17            8.5045     4.1824     0.6078 C.ar    
  18 C18            7.3498     3.4615     0.3703 C.ar    
  19 N19            6.6535     2.8812     1.4385 N.am    
  20 C20            7.3101     2.5396     2.5648 C.2     
  21 C21            6.5987     1.8557     3.6494 C.2     
  22 O22            8.4936     2.7987     2.6817 O.2     
  23 C23            7.1405     1.4556     4.8373 C.2     
  24 C24            6.1072     0.8485     5.5680 C.2     
  25 C25            4.9940     0.9040     4.8038 C.2     
  26 O26            5.2929     1.5168     3.6509 O.3     
  27 C27           10.4241     5.5391    -0.2112 C.2     
  28 N28           11.0880     6.0994    -1.2417 N.am    
  29 O29           10.8393     5.6723     0.9238 O.2     
  30 C30           12.3098     6.8688    -0.9943 C.3     
  31 C31           12.8610     7.3917    -2.3223 C.3     
  32 N32           14.0829     8.1611    -2.0749 N.am    
  33 C33            4.2604    -1.5298    -4.3668 C.3     
  34 C34           15.2808     7.5434    -2.0797 C.2     
  35 C35           14.0027     9.6019    -1.8222 C.3     
  36 C36           16.5180     8.3312    -1.9139 C.ar    
  37 O37           15.3423     6.3373    -2.2206 O.2     
  38 C38           16.5518     9.4014    -1.0163 C.ar    
  39 C39           17.7115    10.1362    -0.8641 C.ar    
  40 C40           18.8468     9.8088    -1.6064 C.ar    
  41 C41           18.8119     8.7449    -2.4981 C.ar    
  42 C42           17.6598     8.0049    -2.6498 C.ar    
  43 O43           18.0044    11.2079    -0.0704 O.3     
  44 C44           19.4421    11.2752    -0.0320 C.3     
  45 O45           19.8466    10.6755    -1.2767 O.3     
  46 H46           -0.2487    -0.3324    -1.7351 H       
  47 H47           -0.2227    -2.1753    -3.3656 H       
  48 H48            1.8483    -2.7244    -4.5767 H       
  49 H49            1.8001     0.9616    -1.3040 H       
  50 H50            3.8581     0.7846    -0.3904 H       
  51 H51            4.7642    -0.6652    -0.8868 H       
  52 H52            6.2545     1.0389     0.1534 H       
  53 H53            6.6822     0.7438    -1.5494 H       
  54 H54            5.1020     3.8209    -2.7530 H       
  55 H55            6.0081     2.3710    -3.2494 H       
  56 H56            3.6117     2.1168    -3.7933 H       
  57 H57            3.1840     2.4119    -2.0904 H       
  58 H58            7.1998     3.7688    -3.0062 H       
  59 H59            9.2472     5.0598    -2.5903 H       
  60 H60            8.8718     4.2991     1.6167 H       
  61 H61            5.6987     2.7253     1.3674 H       
  62 H62            8.1656     1.5815     5.1532 H       
  63 H63            6.1868     0.4178     6.5552 H       
  64 H64            4.0225     0.5208     5.0791 H       
  65 H65           10.7567     5.9932    -2.1472 H       
  66 H66           12.0832     7.7096    -0.3387 H       
  67 H67           13.0529     6.2280    -0.5196 H       
  68 H68           13.0876     6.5508    -2.9779 H       
  69 H69           12.1180     8.0325    -2.7970 H       
  70 H70            4.2641    -1.0203    -5.3304 H       
  71 H71            5.1211    -1.2062    -3.7814 H       
  72 H72            4.3130    -2.6070    -4.5251 H       
  73 H73           13.9794     9.7816    -0.7474 H       
  74 H74           14.8731    10.0956    -2.2544 H       
  75 H75           13.0958    10.0006    -2.2770 H       
  76 H76           15.6723     9.6540    -0.4427 H       
  77 H77           19.6922     8.4939    -3.0712 H       
  78 H78           17.6380     7.1753    -3.3410 H       
  79 H79           19.7756    12.3117     0.0198 H       
  80 H80           19.8298    10.7045     0.8118 H       
@<TRIPOS>BOND
   1    1    2 ar
   2    1    6 ar
   3    1   46 1
   4    2    3 ar
   5    2   47 1
   6    3    4 ar
   7    3   48 1
   8    4    5 ar
   9    4   33 1
  10    5    6 ar
  11    5    7 1
  12    6   49 1
  13    7    8 1
  14    7   12 1
  15    8    9 1
  16    8   50 1
  17    8   51 1
  18    9   10 1
  19    9   52 1
  20    9   53 1
  21   10   11 1
  22   10   13 1
  23   11   12 1
  24   11   54 1
  25   11   55 1
  26   12   56 1
  27   12   57 1
  28   13   14 ar
  29   13   18 ar
  30   14   15 ar
  31   14   58 1
  32   15   16 ar
  33   15   59 1
  34   16   17 ar
  35   16   27 1
  36   17   18 ar
  37   17   60 1
  38   18   19 1
  39   19   20 am
  40   19   61 1
  41   20   21 1
  42   20   22 2
  43   21   23 2
  44   21   26 1
  45   23   24 1
  46   23   62 1
  47   24   25 2
  48   24   63 1
  49   25   26 1
  50   25   64 1
  51   27   28 am
  52   27   29 2
  53   28   30 1
  54   28   65 1
  55   30   31 1
  56   30   66 1
  57   30   67 1
  58   31   32 1
  59   31   68 1
  60   31   69 1
  61   32   34 am
  62   32   35 1
  63   33   70 1
  64   33   71 1
  65   33   72 1
  66   34   36 1
  67   34   37 2
  68   35   73 1
  69   35   74 1
  70   35   75 1
  71   36   38 ar
  72   36   42 ar
  73   38   39 ar
  74   38   76 1
  75   39   40 ar
  76   39   43 1
  77   40   41 ar
  78   40   45 1
  79   41   42 ar
  80   41   77 1
  81   42   78 1
  82   43   44 1
  83   44   45 1
  84   44   79 1
  85   44   80 1

#	End of record

