#	Name: ASD08150971
#	Creating user name:	WinNT
#	Creation time:	15. 06. 2019 21:16

#	Modifying user name:	WinNT
#	Modification time:	15. 06. 2019 21:16

#	Program:	/corina/corina34_cracker 3.40 0067  02.08.2006

@<TRIPOS>MOLECULE
ASD08150971
  60   65    0    0    0
SMALL
NO_CHARGES


@<TRIPOS>ATOM
   1 N1            -0.5461     1.8279    -0.5169 N.2     
   2 C2            -0.5504     0.5572    -0.7980 C.2     
   3 N3             0.7014     0.1558    -1.1588 N.pl3   
   4 C4             1.5206     1.2543    -1.0929 C.ar    
   5 N5             2.8100     1.4786    -1.3234 N.ar    
   6 C6             3.3200     2.6822    -1.1675 C.ar    
   7 N7             2.5940     3.7150    -0.7803 N.ar    
   8 C8             1.2957     3.5871    -0.5264 C.ar    
   9 C9             0.7051     2.3213    -0.6791 C.ar    
  10 N10            0.5430     4.6752    -0.1206 N.pl3   
  11 C11            1.1763     5.9873     0.0336 C.3     
  12 C12            1.3058     6.6553    -1.3367 C.3     
  13 N13            0.6756     9.6479     3.2312 N.ar    
  14 C14           -0.0552    10.4011     4.0168 C.ar    
  15 C15           -1.4305    10.2141     4.1390 C.ar    
  16 C16           -2.0494     9.2250     3.4292 C.ar    
  17 C17           -1.2608     8.4185     2.5868 C.ar    
  18 C18           -1.8291     7.3827     1.8265 C.ar    
  19 C19           -1.0385     6.6198     1.0199 C.ar    
  20 C20            0.3313     6.8500     0.9352 C.ar    
  21 C21            0.9250     7.8564     1.6654 C.ar    
  22 C22            0.1321     8.6637     2.5100 C.ar    
  23 N23            2.2996     8.0760     1.5712 N.3     
  24 C24            2.9560     7.8679     2.8688 C.3     
  25 C25            4.4758     7.9397     2.6860 C.3     
  26 N26            4.8067     9.2075     2.0179 N.am    
  27 C27            4.0881     9.5506     0.7813 C.3     
  28 C28            2.5836     9.4154     1.0390 C.3     
  29 C29            5.7432    10.0332     2.5255 C.2     
  30 O30            6.3087     9.7461     3.5620 O.2     
  31 C31            6.0830    11.2907     1.8198 C.ar    
  32 C32            6.8632    12.2583     2.4518 C.ar    
  33 N33            5.6495    11.4976     0.5796 N.ar    
  34 N34            7.1639    13.3776     1.8184 N.ar    
  35 C35            6.7264    13.5802     0.5882 C.ar    
  36 C36            5.9543    12.6173    -0.0452 C.ar    
  37 Cl37          -3.5353     7.0746     1.9148 Cl      
  38 H38           -1.4177    -0.0847    -0.7517 H       
  39 H39            0.9646    -0.7420    -1.4149 H       
  40 H40            4.3717     2.8304    -1.3632 H       
  41 H41           -0.4038     4.5692     0.0617 H       
  42 H42            2.1663     5.8636     0.4726 H       
  43 H43            0.3267     6.6987    -1.8138 H       
  44 H44            1.6948     7.6660    -1.2129 H       
  45 H45            1.9882     6.0771    -1.9597 H       
  46 H46            0.4212    11.1868     4.5843 H       
  47 H47           -2.0064    10.8503     4.7947 H       
  48 H48           -3.1144     9.0656     3.5121 H       
  49 H49           -1.4816     5.8251     0.4380 H       
  50 H50            2.6366     8.6423     3.5663 H       
  51 H51            2.6828     6.8887     3.2618 H       
  52 H52            4.9640     7.9007     3.6598 H       
  53 H53            4.8106     7.1038     2.0718 H       
  54 H54            4.3199    10.5766     0.4957 H       
  55 H55            4.3856     8.8695    -0.0161 H       
  56 H56            2.0402     9.5584     0.1050 H       
  57 H57            2.2694    10.1682     1.7620 H       
  58 H58            7.2206    12.0929     3.4575 H       
  59 H59            6.9740    14.4965     0.0728 H       
  60 H60            5.6026    12.7854    -1.0525 H       
@<TRIPOS>BOND
   1    1    2 2
   2    1    9 1
   3    2    3 1
   4    2   38 1
   5    3    4 1
   6    3   39 1
   7    4    5 ar
   8    4    9 ar
   9    5    6 ar
  10    6    7 ar
  11    6   40 1
  12    7    8 ar
  13    8    9 ar
  14    8   10 1
  15   10   11 1
  16   10   41 1
  17   11   12 1
  18   11   20 1
  19   11   42 1
  20   12   43 1
  21   12   44 1
  22   12   45 1
  23   13   14 ar
  24   13   22 ar
  25   14   15 ar
  26   14   46 1
  27   15   16 ar
  28   15   47 1
  29   16   17 ar
  30   16   48 1
  31   17   18 ar
  32   17   22 ar
  33   18   19 ar
  34   18   37 1
  35   19   20 ar
  36   19   49 1
  37   20   21 ar
  38   21   22 ar
  39   21   23 1
  40   23   24 1
  41   23   28 1
  42   24   25 1
  43   24   50 1
  44   24   51 1
  45   25   26 1
  46   25   52 1
  47   25   53 1
  48   26   27 1
  49   26   29 am
  50   27   28 1
  51   27   54 1
  52   27   55 1
  53   28   56 1
  54   28   57 1
  55   29   30 2
  56   29   31 1
  57   31   32 ar
  58   31   33 ar
  59   32   34 ar
  60   32   58 1
  61   33   36 ar
  62   34   35 ar
  63   35   36 ar
  64   35   59 1
  65   36   60 1

#	End of record

