#	Name: ASD06600062
#	Creating user name:	WinNT
#	Creation time:	15. 06. 2019 21:07

#	Modifying user name:	WinNT
#	Modification time:	15. 06. 2019 21:07

#	Program:	/corina/corina34_cracker 3.40 0067  02.08.2006

@<TRIPOS>MOLECULE
ASD06600062
 353  354    0    0    0
SMALL
NO_CHARGES


@<TRIPOS>ATOM
   1 C1             1.0979     5.0990     1.1494 C.2     
   2 O2             1.0233     3.8886     1.1586 O.2     
   3 N3             3.4950     4.7513     1.0011 N.am    
   4 C4             2.4443     5.7703     1.0629 C.3     
   5 C5            -2.3894     6.1179     0.7447 C.2     
   6 O6            -2.1524     7.3007     0.6195 O.2     
   7 N7            -0.0237     5.8438     1.2110 N.am    
   8 C8            -1.3330     5.1912     1.2890 C.3     
   9 C9            -1.6502     4.8573     2.7480 C.3     
  10 C10           -0.6541     3.8154     3.2610 C.3     
  11 C11           -1.5435     6.1260     3.5965 C.3     
  12 C12           -6.0004     5.9176     0.2120 C.2     
  13 O13           -6.0804     4.7312     0.4508 O.2     
  14 N14           -3.5976     5.6322     0.3969 N.am    
  15 C15           -4.6546     6.5453    -0.0447 C.3     
  16 C16           -4.4978     6.8212    -1.5415 C.3     
  17 C17           -3.1752     7.5492    -1.7900 C.3     
  18 C18           -4.5026     5.4968    -2.3074 C.3     
  19 C19           -9.4775     6.9090    -0.3260 C.2     
  20 O20           -9.1566     7.9424    -0.8738 O.2     
  21 N21           -7.1149     6.6745     0.1762 N.am    
  22 C22           -8.4304     6.0492     0.3338 C.3     
  23 C23           -8.7521     5.9061     1.8227 C.3     
  24 C24           -7.7769     4.9485     2.4575 C.2     
  25 C25           -6.9990     5.2040     3.5267 C.2     
  26 N26           -6.2726     4.0693     3.7683 N.pl3   
  27 C27           -6.6321     3.1591     2.8376 C.2     
  28 N28           -7.5358     3.6903     2.0602 N.2     
  29 C29          -13.1276     7.1074    -0.3072 C.2     
  30 O30          -13.2223     6.3043     0.5966 O.2     
  31 N31          -10.7707     6.5297    -0.3073 N.am    
  32 C32          -11.7886     7.3655    -0.9486 C.3     
  33 C33          -11.8628     7.0257    -2.4386 C.3     
  34 C34          -10.5435     7.4045    -3.1144 C.3     
  35 C35          -10.6177     7.0647    -4.6043 C.3     
  36 N36           -9.3544     7.4274    -5.2514 N.pl3   
  37 C37           -9.1858     7.2130    -6.5989 C.2     
  38 N38           -8.0619     7.5357    -7.1747 N.2     
  39 N39          -10.2029     6.6581    -7.3392 N.pl3   
  40 C40          -16.6194     7.8531    -1.0911 C.2     
  41 O41          -16.3418     8.2613    -2.1989 O.2     
  42 N42          -14.2200     7.7689    -0.7381 N.am    
  43 C43          -15.5217     7.5180    -0.1145 C.3     
  44 C44          -15.6659     8.3906     1.1339 C.3     
  45 C45          -14.6293     7.9654     2.1758 C.3     
  46 C46          -14.6896     8.9164     3.3728 C.3     
  47 C47          -14.9298     6.5394     2.6418 C.3     
  48 C48          -20.2351     8.3655    -0.9268 C.2     
  49 O49          -20.2400     8.3389     0.2857 O.2     
  50 N50          -17.9097     7.6991    -0.7335 N.am    
  51 C51          -18.9769     8.0249    -1.6829 C.3     
  52 C52          -19.2373     6.8208    -2.5903 C.3     
  53 C53          -17.9998     6.5521    -3.4489 C.3     
  54 C54          -18.2602     5.3481    -4.3563 C.3     
  55 N55          -17.0752     5.0908    -5.1784 N.pl3   
  56 C56          -17.0747     4.0502    -6.0769 C.2     
  57 N57          -16.0204     3.8213    -6.8084 N.2     
  58 N58          -18.1861     3.2510    -6.2039 N.pl3   
  59 C59          -23.7768     8.7680    -1.7378 C.2     
  60 O60          -23.6242     8.3455    -2.8644 O.2     
  61 N61          -21.3550     8.6999    -1.5980 N.am    
  62 C62          -22.5783     9.0311    -0.8630 C.3     
  63 C63          -22.5507    10.5085    -0.4664 C.3     
  64 C64          -21.4072    10.7503     0.5209 C.3     
  65 C65          -21.3801    12.2056     0.9116 C.2     
  66 O66          -22.1951    12.9737     0.4461 O.2     
  67 N67          -20.4501    12.6535     1.7782 N.am    
  68 C68          -27.3334     9.6100    -1.6682 C.2     
  69 O69          -27.1935    10.3646    -0.7291 O.2     
  70 N70          -25.0182     9.0023    -1.2683 N.am    
  71 C71          -26.1834     8.7466    -2.1188 C.3     
  72 C72          -26.5795     7.2727    -2.0114 C.3     
  73 C73          -30.9360     9.7379    -2.2745 C.2     
  74 O74          -30.9298     8.6811    -2.8696 O.2     
  75 N75          -28.5173     9.5436    -2.3088 N.am    
  76 C76          -29.6353    10.3829    -1.8707 C.3     
  77 C77          -29.5249    11.7615    -2.5250 C.3     
  78 C78          -28.2658    12.4675    -2.0179 C.3     
  79 C79          -28.1572    13.8254    -2.6624 C.2     
  80 O80          -29.0035    14.1924    -3.4498 O.2     
  81 N81          -27.1195    14.6319    -2.3637 N.am    
  82 C82          -34.4374    10.7652    -2.4940 C.2     
  83 O83          -34.1678    11.9278    -2.2780 O.2     
  84 N84          -32.1062    10.3353    -1.9743 N.am    
  85 C85          -33.3707     9.7083    -2.3668 C.3     
  86 C86          -33.7864     8.6896    -1.3037 C.3     
  87 C87          -32.7657     7.5506    -1.2619 C.3     
  88 C88          -33.1814     6.5319    -0.1988 C.3     
  89 N89          -32.2039     5.4413    -0.1588 N.pl3   
  90 C90          -32.3693     4.4021     0.7259 C.2     
  91 N91          -31.4997     3.4318     0.7615 N.2     
  92 N92          -33.4519     4.3863     1.5732 N.pl3   
  93 C93          -38.0826    10.8201    -2.7628 C.2     
  94 O94          -38.2581     9.6505    -3.0314 O.2     
  95 N95          -35.6908    10.4186    -2.8478 N.am    
  96 C96          -36.7277    11.4461    -2.9714 C.3     
  97 C97          -36.6636    12.0700    -4.3669 C.3     
  98 C98          -35.3280    12.7961    -4.5400 C.3     
  99 C99          -35.2639    13.4201    -5.9355 C.3     
 100 N100         -33.9851    14.1154    -6.1013 N.pl3   
 101 C101         -33.6996    14.7569    -7.2832 C.2     
 102 N102         -34.5666    14.7464    -8.2564 N.2     
 103 N103         -32.4995    15.4094    -7.4388 N.pl3   
 104 C104         -41.0842    10.4450    -3.1477 C.2     
 105 O105         -40.4920    10.4274    -4.2060 O.2     
 106 N106         -39.0993    11.5600    -2.2778 N.am    
 107 C107         -40.4367    11.0565    -1.9320 C.3     
 108 C108         -41.2682    12.2618    -1.4448 C.3     
 109 C109         -40.5308    13.4713    -2.0777 C.3     
 110 C110         -39.0526    13.0071    -2.0000 C.3     
 111 C111         -44.4494     9.3726    -4.0901 C.2     
 112 O112         -44.9431     9.8566    -3.0936 O.2     
 113 N113         -42.3214     9.9178    -3.0590 N.am    
 114 C114         -42.9508     9.3234    -4.2408 C.3     
 115 C115         -42.4999     7.8681    -4.3812 C.3     
 116 C116         -40.9959     7.8247    -4.6587 C.3     
 117 C117         -40.5518     6.3913    -4.7970 C.2     
 118 O118         -41.3587     5.4929    -4.6847 O.2     
 119 N119         -39.2578     6.1077    -5.0455 N.am    
 120 C120         -47.3226     7.8358    -5.7473 C.2     
 121 O121         -46.6200     7.0916    -6.3980 O.2     
 122 N122         -45.2411     8.8789    -5.0626 N.am    
 123 C123         -46.6980     8.9267    -4.9161 C.3     
 124 C124         -47.2138    10.2872    -5.3895 C.3     
 125 C125         -46.6780    11.3846    -4.4677 C.3     
 126 C126         -47.1937    12.7450    -4.9411 C.3     
 127 N127         -46.6807    13.7958    -4.0585 N.pl3   
 128 C128         -47.0131    15.1098    -4.2887 C.2     
 129 N129         -46.5567    16.0447    -3.5034 N.2     
 130 N130         -47.8270    15.4377    -5.3471 N.pl3   
 131 C131         -50.6815     7.0129    -6.9320 C.2     
 132 O132         -51.1361     8.0700    -6.5488 O.2     
 133 N133         -48.6620     7.6871    -5.7675 N.am    
 134 C134         -49.2691     6.6266    -6.5755 C.3     
 135 C135         -49.2834     5.3217    -5.7768 C.3     
 136 C136         -47.8459     4.8639    -5.5222 C.3     
 137 C137         -47.8600     3.5786    -4.7355 C.2     
 138 O138         -48.9158     3.0781    -4.4104 O.2     
 139 N139         -46.6993     2.9853    -4.3931 N.am    
 140 C140         -53.7391     6.1654    -6.9018 C.2     
 141 O141         -53.2979     5.6264    -5.9145 O.2     
 142 N142         -51.4394     6.1837    -7.6766 N.am    
 143 C143         -52.8124     6.5592    -8.0231 C.3     
 144 C144         -53.2298     5.8385    -9.3066 C.3     
 145 C145         -52.3690     6.3317   -10.4714 C.3     
 146 C146         -52.7864     5.6110   -11.7548 C.3     
 147 C147         -51.9256     6.1042   -12.9196 C.3     
 148 N148         -52.3263     5.4122   -14.1519 N.3     
 149 O149         -55.0546     6.4134    -6.9999 O.3     
 150 C150           4.7885     5.1210     0.9190 C.2     
 151 O151           5.0826     6.2974     0.8963 O.2     
 152 C152          23.1192     1.3934    -0.2109 C.3     
 153 C153          22.0219     2.4577    -0.1464 C.3     
 154 C154          20.6549     1.7761    -0.0586 C.3     
 155 C155          19.5576     2.8404     0.0059 C.3     
 156 C156          18.1906     2.1589     0.0938 C.3     
 157 C157          17.0934     3.2232     0.1583 C.3     
 158 C158          15.7264     2.5417     0.2461 C.3     
 159 C159          14.6291     3.6059     0.3106 C.3     
 160 C160          13.2621     2.9244     0.3985 C.3     
 161 C161          12.1648     3.9887     0.4630 C.3     
 162 C162          10.7978     3.3072     0.5508 C.3     
 163 C163           9.7005     4.3715     0.6153 C.3     
 164 C164           8.3335     3.6899     0.7032 C.3     
 165 C165           7.2362     4.7542     0.7677 C.3     
 166 C166           5.8692     4.0727     0.8555 C.3     
 167 H167           3.2598     3.8104     1.0193 H       
 168 H168           2.4850     6.3889     0.1663 H       
 169 H169           2.5959     6.3955     1.9428 H       
 170 H170           0.0360     6.8120     1.2037 H       
 171 H171          -1.3170     4.2733     0.7014 H       
 172 H172          -2.6620     4.4577     2.8176 H       
 173 H173           0.3577     4.2150     3.1914 H       
 174 H174          -0.8801     3.5775     4.3004 H       
 175 H175          -0.7301     2.9115     2.6565 H       
 176 H176          -0.5574     6.5708     3.4625 H       
 177 H177          -2.3083     6.8372     3.2844 H       
 178 H178          -1.6887     5.8739     4.6469 H       
 179 H179          -3.7672     4.6781     0.4391 H       
 180 H180          -4.5795     7.4822     0.5072 H       
 181 H181          -5.3247     7.4427    -1.8850 H       
 182 H182          -2.3445     6.8790    -1.5693 H       
 183 H183          -3.1229     7.8616    -2.8330 H       
 184 H184          -3.1162     8.4258    -1.1448 H       
 185 H185          -5.4448     4.9781    -2.1304 H       
 186 H186          -4.3909     5.6933    -3.3737 H       
 187 H187          -3.6757     4.8753    -1.9639 H       
 188 H188          -7.0461     7.6333     0.0462 H       
 189 H189          -8.4226     5.0640    -0.1326 H       
 190 H190          -8.6728     6.8795     2.3067 H       
 191 H191          -9.7659     5.5234     1.9402 H       
 192 H192          -6.9562     6.1270     4.0858 H       
 193 H193          -5.6212     3.9426     4.4758 H       
 194 H194          -6.2398     2.1565     2.7533 H       
 195 H195         -11.0274     5.7032     0.1309 H       
 196 H196         -11.5246     8.4162    -0.8283 H       
 197 H197         -12.0390     5.9568    -2.5592 H       
 198 H198         -12.6794     7.5827    -2.8980 H       
 199 H199         -10.3672     8.4734    -2.9938 H       
 200 H200          -9.7269     6.8476    -2.6550 H       
 201 H201         -10.7939     5.9959    -4.7249 H       
 202 H202         -11.4343     7.6217    -5.0638 H       
 203 H203          -8.6368     7.8189    -4.7292 H       
 204 H204          -7.9430     7.3843    -8.1254 H       
 205 H205         -11.0393     6.4179    -6.9107 H       
 206 H206         -10.0840     6.5068    -8.2899 H       
 207 H207         -14.1442     8.4113    -1.4610 H       
 208 H208         -15.5935     6.4673     0.1663 H       
 209 H209         -15.5058     9.4353     0.8675 H       
 210 H210         -16.6672     8.2705     1.5475 H       
 211 H211         -13.6337     8.0008     1.7334 H       
 212 H212         -15.6851     8.8810     3.8153 H       
 213 H213         -13.9511     8.6135     4.1151 H       
 214 H214         -14.4755     9.9323     3.0409 H       
 215 H215         -15.9254     6.5039     3.0842 H       
 216 H216         -14.8869     5.8619     1.7890 H       
 217 H217         -14.1913     6.2365     3.3841 H       
 218 H218         -18.1318     7.3726     0.1525 H       
 219 H219         -18.6752     8.8786    -2.2897 H       
 220 H220         -19.4523     5.9446    -1.9786 H       
 221 H221         -20.0895     7.0306    -3.2367 H       
 222 H222         -17.7848     7.4283    -4.0606 H       
 223 H223         -17.1476     6.3423    -2.8025 H       
 224 H224         -18.4752     4.4719    -3.7446 H       
 225 H225         -19.1124     5.5579    -5.0027 H       
 226 H226         -16.2911     5.6547    -5.0889 H       
 227 H227         -16.0200     3.0871    -7.4423 H       
 228 H228         -18.9707     3.4214    -5.6595 H       
 229 H229         -18.1857     2.5168    -6.8378 H       
 230 H230         -21.3511     8.7212    -2.5678 H       
 231 H231         -22.6411     8.4152     0.0342 H       
 232 H232         -22.3987    11.1206    -1.3554 H       
 233 H233         -23.4978    10.7767     0.0018 H       
 234 H234         -21.5592    10.1383     1.4100 H       
 235 H235         -20.4601    10.4821     0.0528 H       
 236 H236         -19.7983    12.0392     2.1504 H       
 237 H237         -20.4327    13.5902     2.0296 H       
 238 H238         -25.1402     9.3402    -0.3673 H       
 239 H239         -25.9362     8.9819    -3.1540 H       
 240 H240         -27.4464     7.0824    -2.6442 H       
 241 H241         -25.7477     6.6482    -2.3373 H       
 242 H242         -26.8267     7.0374    -0.9762 H       
 243 H243         -28.6292     8.9400    -3.0598 H       
 244 H244         -29.6049    10.4918    -0.7866 H       
 245 H245         -29.4660    11.6464    -3.6073 H       
 246 H246         -30.4024    12.3559    -2.2702 H       
 247 H247         -28.3248    12.5826    -0.9356 H       
 248 H248         -27.3884    11.8731    -2.2727 H       
 249 H249         -26.4427    14.3384    -1.7339 H       
 250 H250         -27.0496    15.5060    -2.7785 H       
 251 H251         -32.1112    11.1805    -1.4983 H       
 252 H252         -33.2439     9.2030    -3.3243 H       
 253 H253         -33.8270     9.1770    -0.3296 H       
 254 H254         -34.7693     8.2878    -1.5501 H       
 255 H255         -32.7251     7.0632    -2.2360 H       
 256 H256         -31.7828     7.9524    -1.0155 H       
 257 H257         -33.2219     7.0193     0.7753 H       
 258 H258         -34.1642     6.1301    -0.4452 H       
 259 H259         -31.4401     5.4525    -0.7566 H       
 260 H260         -31.6163     2.6986     1.3858 H       
 261 H261         -34.0990     5.1084     1.5468 H       
 262 H262         -33.5685     3.6531     2.1975 H       
 263 H263         -35.9064     9.4887    -3.0205 H       
 264 H264         -36.5649    12.2188    -2.2201 H       
 265 H265         -36.7514    11.2865    -5.1196 H       
 266 H266         -37.4815    12.7807    -4.4851 H       
 267 H267         -35.2402    13.5796    -3.7873 H       
 268 H268         -34.5101    12.0855    -4.4218 H       
 269 H269         -35.3517    12.6366    -6.6882 H       
 270 H270         -36.0819    14.1308    -6.0537 H       
 271 H271         -33.3398    14.1232    -5.3770 H       
 272 H272         -34.3651    15.1990    -9.0904 H       
 273 H273         -31.8542    15.4171    -6.7146 H       
 274 H274         -32.2980    15.8620    -8.2727 H       
 275 H275         -40.3591    10.3121    -1.1396 H       
 276 H276         -42.2920    12.1983    -1.8135 H       
 277 H277         -41.2523    12.3267    -0.3568 H       
 278 H278         -40.8427    13.6218    -3.1112 H       
 279 H279         -40.6861    14.3753    -1.4888 H       
 280 H280         -38.6471    13.1894    -1.0048 H       
 281 H281         -38.4546    13.5190    -2.7539 H       
 282 H282         -42.7950     9.9319    -2.2126 H       
 283 H283         -42.6564     9.8823    -5.1291 H       
 284 H284         -42.7146     7.3305    -3.4577 H       
 285 H285         -43.0354     7.3999    -5.2071 H       
 286 H286         -40.7812     8.3623    -5.5822 H       
 287 H287         -40.4604     8.2929    -3.8328 H       
 288 H288         -38.6124     6.8263    -5.1353 H       
 289 H289         -38.9719     5.1851    -5.1345 H       
 290 H290         -44.8463     8.4918    -5.8596 H       
 291 H291         -46.9628     8.7822    -3.8687 H       
 292 H292         -46.8732    10.4703    -6.4086 H       
 293 H293         -48.3035    10.2914    -5.3642 H       
 294 H294         -47.0185    11.2014    -3.4486 H       
 295 H295         -45.5883    11.3803    -4.4929 H       
 296 H296         -46.8532    12.9281    -5.9602 H       
 297 H297         -48.2834    12.7493    -4.9158 H       
 298 H298         -46.1065    13.5644    -3.3117 H       
 299 H299         -46.7912    16.9718    -3.6658 H       
 300 H300         -48.1666    14.7420    -5.9315 H       
 301 H301         -48.0615    16.3648    -5.5095 H       
 302 H302         -49.2239     8.2823    -5.2471 H       
 303 H303         -48.6892     6.4878    -7.4879 H       
 304 H304         -49.7871     5.4845    -4.8239 H       
 305 H305         -49.8141     4.5556    -6.3420 H       
 306 H306         -47.3423     4.7011    -6.4750 H       
 307 H307         -47.3153     5.6301    -4.9569 H       
 308 H308         -45.8548     3.3856    -4.6530 H       
 309 H309         -46.7083     2.1581    -3.8867 H       
 310 H310         -51.0758     5.3382    -7.9830 H       
 311 H311         -52.8664     7.6368    -8.1775 H       
 312 H312         -53.0913     4.7645    -9.1817 H       
 313 H313         -54.2788     6.0476    -9.5160 H       
 314 H314         -52.5075     7.4056   -10.5962 H       
 315 H315         -51.3200     6.1226   -10.2619 H       
 316 H316         -52.6479     4.5371   -11.6300 H       
 317 H317         -53.8354     5.8201   -11.9643 H       
 318 H318         -52.0641     7.1781   -13.0445 H       
 319 H319         -50.8766     5.8951   -12.7102 H       
 320 H320         -53.3110     5.5376   -14.3332 H       
 321 H321         -51.7721     5.7208   -14.9365 H       
 322 H322         -55.6091     6.1427    -6.2554 H       
 323 H323          24.0931     1.8789    -0.2735 H       
 324 H324          23.0786     0.7748     0.6857 H       
 325 H325          22.9677     0.7682    -1.0908 H       
 326 H326          22.1734     3.0828     0.7335 H       
 327 H327          22.0626     3.0762    -1.0430 H       
 328 H328          20.5034     1.1509    -0.9385 H       
 329 H329          20.6143     1.1575     0.8380 H       
 330 H330          19.7092     3.4656     0.8859 H       
 331 H331          19.5983     3.4590    -0.8906 H       
 332 H332          18.0391     1.5337    -0.7862 H       
 333 H333          18.1500     1.5403     0.9903 H       
 334 H334          17.2449     3.8484     1.0382 H       
 335 H335          17.1340     3.8418    -0.7383 H       
 336 H336          15.5749     1.9165    -0.6338 H       
 337 H337          15.6857     1.9231     1.1427 H       
 338 H338          14.7806     4.2311     1.1906 H       
 339 H339          14.6697     4.2245    -0.5859 H       
 340 H340          13.1106     2.2992    -0.4815 H       
 341 H341          13.2214     2.3058     1.2950 H       
 342 H342          12.3163     4.6139     1.3429 H       
 343 H343          12.2055     4.6073    -0.4336 H       
 344 H344          10.6463     2.6820    -0.3291 H       
 345 H345          10.7571     2.6886     1.4474 H       
 346 H346           9.8520     4.9967     1.4953 H       
 347 H347           9.7412     4.9900    -0.2812 H       
 348 H348           8.1820     3.0648    -0.1768 H       
 349 H349           8.2929     3.0714     1.5997 H       
 350 H350           7.3877     5.3794     1.6476 H       
 351 H351           7.2769     5.3728    -0.1289 H       
 352 H352           5.8286     3.4541     1.7521 H       
 353 H353           5.7177     3.4475    -0.0244 H       
@<TRIPOS>BOND
   1    1    2 2
   2    1    4 1
   3    1    7 am
   4    3    4 1
   5    3  150 am
   6    3  167 1
   7    4  168 1
   8    4  169 1
   9    5    6 2
  10    5    8 1
  11    5   14 am
  12    7    8 1
  13    7  170 1
  14    8    9 1
  15    8  171 1
  16    9   10 1
  17    9   11 1
  18    9  172 1
  19   10  173 1
  20   10  174 1
  21   10  175 1
  22   11  176 1
  23   11  177 1
  24   11  178 1
  25   12   13 2
  26   12   15 1
  27   12   21 am
  28   14   15 1
  29   14  179 1
  30   15   16 1
  31   15  180 1
  32   16   17 1
  33   16   18 1
  34   16  181 1
  35   17  182 1
  36   17  183 1
  37   17  184 1
  38   18  185 1
  39   18  186 1
  40   18  187 1
  41   19   20 2
  42   19   22 1
  43   19   31 am
  44   21   22 1
  45   21  188 1
  46   22   23 1
  47   22  189 1
  48   23   24 1
  49   23  190 1
  50   23  191 1
  51   24   25 2
  52   24   28 1
  53   25   26 1
  54   25  192 1
  55   26   27 1
  56   26  193 1
  57   27   28 2
  58   27  194 1
  59   29   30 2
  60   29   32 1
  61   29   42 am
  62   31   32 1
  63   31  195 1
  64   32   33 1
  65   32  196 1
  66   33   34 1
  67   33  197 1
  68   33  198 1
  69   34   35 1
  70   34  199 1
  71   34  200 1
  72   35   36 1
  73   35  201 1
  74   35  202 1
  75   36   37 1
  76   36  203 1
  77   37   38 2
  78   37   39 1
  79   38  204 1
  80   39  205 1
  81   39  206 1
  82   40   41 2
  83   40   43 1
  84   40   50 am
  85   42   43 1
  86   42  207 1
  87   43   44 1
  88   43  208 1
  89   44   45 1
  90   44  209 1
  91   44  210 1
  92   45   46 1
  93   45   47 1
  94   45  211 1
  95   46  212 1
  96   46  213 1
  97   46  214 1
  98   47  215 1
  99   47  216 1
 100   47  217 1
 101   48   49 2
 102   48   51 1
 103   48   61 am
 104   50   51 1
 105   50  218 1
 106   51   52 1
 107   51  219 1
 108   52   53 1
 109   52  220 1
 110   52  221 1
 111   53   54 1
 112   53  222 1
 113   53  223 1
 114   54   55 1
 115   54  224 1
 116   54  225 1
 117   55   56 1
 118   55  226 1
 119   56   57 2
 120   56   58 1
 121   57  227 1
 122   58  228 1
 123   58  229 1
 124   59   60 2
 125   59   62 1
 126   59   70 am
 127   61   62 1
 128   61  230 1
 129   62   63 1
 130   62  231 1
 131   63   64 1
 132   63  232 1
 133   63  233 1
 134   64   65 1
 135   64  234 1
 136   64  235 1
 137   65   66 2
 138   65   67 am
 139   67  236 1
 140   67  237 1
 141   68   69 2
 142   68   71 1
 143   68   75 am
 144   70   71 1
 145   70  238 1
 146   71   72 1
 147   71  239 1
 148   72  240 1
 149   72  241 1
 150   72  242 1
 151   73   74 2
 152   73   76 1
 153   73   84 am
 154   75   76 1
 155   75  243 1
 156   76   77 1
 157   76  244 1
 158   77   78 1
 159   77  245 1
 160   77  246 1
 161   78   79 1
 162   78  247 1
 163   78  248 1
 164   79   80 2
 165   79   81 am
 166   81  249 1
 167   81  250 1
 168   82   83 2
 169   82   85 1
 170   82   95 am
 171   84   85 1
 172   84  251 1
 173   85   86 1
 174   85  252 1
 175   86   87 1
 176   86  253 1
 177   86  254 1
 178   87   88 1
 179   87  255 1
 180   87  256 1
 181   88   89 1
 182   88  257 1
 183   88  258 1
 184   89   90 1
 185   89  259 1
 186   90   91 2
 187   90   92 1
 188   91  260 1
 189   92  261 1
 190   92  262 1
 191   93   94 2
 192   93   96 1
 193   93  106 am
 194   95   96 1
 195   95  263 1
 196   96   97 1
 197   96  264 1
 198   97   98 1
 199   97  265 1
 200   97  266 1
 201   98   99 1
 202   98  267 1
 203   98  268 1
 204   99  100 1
 205   99  269 1
 206   99  270 1
 207  100  101 1
 208  100  271 1
 209  101  102 2
 210  101  103 1
 211  102  272 1
 212  103  273 1
 213  103  274 1
 214  104  105 2
 215  104  113 am
 216  104  107 1
 217  106  107 1
 218  106  110 1
 219  107  108 1
 220  107  275 1
 221  108  109 1
 222  108  276 1
 223  108  277 1
 224  109  110 1
 225  109  278 1
 226  109  279 1
 227  110  280 1
 228  110  281 1
 229  111  112 2
 230  111  114 1
 231  111  122 am
 232  113  114 1
 233  113  282 1
 234  114  115 1
 235  114  283 1
 236  115  116 1
 237  115  284 1
 238  115  285 1
 239  116  117 1
 240  116  286 1
 241  116  287 1
 242  117  118 2
 243  117  119 am
 244  119  288 1
 245  119  289 1
 246  120  121 2
 247  120  123 1
 248  120  133 am
 249  122  123 1
 250  122  290 1
 251  123  124 1
 252  123  291 1
 253  124  125 1
 254  124  292 1
 255  124  293 1
 256  125  126 1
 257  125  294 1
 258  125  295 1
 259  126  127 1
 260  126  296 1
 261  126  297 1
 262  127  128 1
 263  127  298 1
 264  128  129 2
 265  128  130 1
 266  129  299 1
 267  130  300 1
 268  130  301 1
 269  131  132 2
 270  131  134 1
 271  131  142 am
 272  133  134 1
 273  133  302 1
 274  134  135 1
 275  134  303 1
 276  135  136 1
 277  135  304 1
 278  135  305 1
 279  136  137 1
 280  136  306 1
 281  136  307 1
 282  137  138 2
 283  137  139 am
 284  139  308 1
 285  139  309 1
 286  140  141 2
 287  140  143 1
 288  140  149 1
 289  142  143 1
 290  142  310 1
 291  143  144 1
 292  143  311 1
 293  144  145 1
 294  144  312 1
 295  144  313 1
 296  145  146 1
 297  145  314 1
 298  145  315 1
 299  146  147 1
 300  146  316 1
 301  146  317 1
 302  147  148 1
 303  147  318 1
 304  147  319 1
 305  148  320 1
 306  148  321 1
 307  149  322 1
 308  150  151 2
 309  150  166 1
 310  152  153 1
 311  152  323 1
 312  152  324 1
 313  152  325 1
 314  153  154 1
 315  153  326 1
 316  153  327 1
 317  154  155 1
 318  154  328 1
 319  154  329 1
 320  155  156 1
 321  155  330 1
 322  155  331 1
 323  156  157 1
 324  156  332 1
 325  156  333 1
 326  157  158 1
 327  157  334 1
 328  157  335 1
 329  158  159 1
 330  158  336 1
 331  158  337 1
 332  159  160 1
 333  159  338 1
 334  159  339 1
 335  160  161 1
 336  160  340 1
 337  160  341 1
 338  161  162 1
 339  161  342 1
 340  161  343 1
 341  162  163 1
 342  162  344 1
 343  162  345 1
 344  163  164 1
 345  163  346 1
 346  163  347 1
 347  164  165 1
 348  164  348 1
 349  164  349 1
 350  165  166 1
 351  165  350 1
 352  165  351 1
 353  166  352 1
 354  166  353 1

#	End of record

