#	Name: ASD06170100
#	Creating user name:	WinNT
#	Creation time:	15. 06. 2019 21:05

#	Modifying user name:	WinNT
#	Modification time:	15. 06. 2019 21:05

#	Program:	/corina/corina34_cracker 3.40 0067  02.08.2006

@<TRIPOS>MOLECULE
ASD06170100
  63   67    0    0    0
SMALL
NO_CHARGES


@<TRIPOS>ATOM
   1 N1             0.4015     2.0031    -1.2756 N.pl3   
   2 N2             0.2054     0.9169    -0.4177 N.am    
   3 C3             1.4114     0.4496    -0.0336 C.2     
   4 C4             2.4175     1.2971    -0.6930 C.2     
   5 C5             1.7193     2.2275    -1.4380 C.2     
   6 C6             3.8761     1.1776    -0.5809 C.2     
   7 O7             4.5979     1.9499    -1.1836 O.2     
   8 N8             4.4159     0.2126     0.1896 N.am    
   9 C9            -1.0335     0.4015    -0.0230 C.ar    
  10 C10           -1.9905     0.0824    -0.9775 C.ar    
  11 C11           -3.2127    -0.4268    -0.5845 C.ar    
  12 C12           -3.4841    -0.6187     0.7578 C.ar    
  13 C13           -2.5335    -0.3016     1.7107 C.ar    
  14 C14           -1.3071     0.2022     1.3240 C.ar    
  15 O15            1.6252    -0.4883     0.7117 O.2     
  16 C16            5.7967     0.0144     0.1939 C.ar    
  17 C17            6.6403     1.0435    -0.2093 C.ar    
  18 C18            8.0077     0.8363    -0.2012 C.ar    
  19 C19            8.4885    -0.4034     0.2134 C.ar    
  20 C20            7.5880    -1.3824     0.6016 C.ar    
  21 N21            6.2894    -1.1491     0.5868 N.ar    
  22 O22            9.8253    -0.6502     0.2365 O.3     
  23 N23           11.8533     0.1155     3.7451 N.ar    
  24 C24           10.5506     0.2653     3.6895 C.ar    
  25 C25            9.8341     0.0171     2.5258 C.ar    
  26 C26           10.4989    -0.4002     1.3860 C.ar    
  27 C27           11.9016    -0.5583     1.4574 C.ar    
  28 C28           12.6439    -0.9779     0.3438 C.ar    
  29 C29           13.9935    -1.1206     0.4441 C.ar    
  30 C30           14.6534    -0.8536     1.6471 C.ar    
  31 C31           13.9530    -0.4407     2.7579 C.ar    
  32 C32           12.5598    -0.2850     2.6813 C.ar    
  33 O33           16.0014    -1.0038     1.7211 O.3     
  34 C34           16.6721    -1.4353     0.5354 C.3     
  35 C35            2.3296     3.3106    -2.2897 C.3     
  36 C36           -0.6680     2.7784    -1.9092 C.3     
  37 C37           -1.0319     3.9680    -1.0185 C.3     
  38 O38            0.0823     4.8589    -0.9349 O.3     
  39 H39            3.8443    -0.3442     0.7411 H       
  40 H40           -1.7794     0.2327    -2.0260 H       
  41 H41           -3.9573    -0.6751    -1.3263 H       
  42 H42           -4.4407    -1.0167     1.0625 H       
  43 H43           -2.7489    -0.4520     2.7583 H       
  44 H44           -0.5633     0.4451     2.0684 H       
  45 H45            6.2329     1.9925    -0.5252 H       
  46 H46            8.6868     1.6174    -0.5094 H       
  47 H47            7.9534    -2.3462     0.9239 H       
  48 H48           10.0212     0.5902     4.5730 H       
  49 H49            8.7622     0.1489     2.5106 H       
  50 H50           12.1454    -1.1875    -0.5911 H       
  51 H51           14.5614    -1.4443    -0.4157 H       
  52 H52           14.4722    -0.2370     3.6827 H       
  53 H53           16.2852    -2.4083     0.2327 H       
  54 H54           16.5013    -0.7123    -0.2622 H       
  55 H55           17.7415    -1.5144     0.7312 H       
  56 H56            2.4673     4.2103    -1.6898 H       
  57 H57            3.2952     2.9748    -2.6678 H       
  58 H58            1.6678     3.5303    -3.1274 H       
  59 H59           -0.3280     3.1413    -2.8791 H       
  60 H60           -1.5444     2.1448    -2.0451 H       
  61 H61           -1.8861     4.4935    -1.4453 H       
  62 H62           -1.2867     3.6104    -0.0208 H       
  63 H63           -0.0774     5.6379    -0.3847 H       
@<TRIPOS>BOND
   1    1    2 1
   2    1    5 1
   3    1   36 1
   4    2    3 am
   5    2    9 1
   6    3    4 1
   7    3   15 2
   8    4    5 2
   9    4    6 1
  10    5   35 1
  11    6    7 2
  12    6    8 am
  13    8   16 1
  14    8   39 1
  15    9   10 ar
  16    9   14 ar
  17   10   11 ar
  18   10   40 1
  19   11   12 ar
  20   11   41 1
  21   12   13 ar
  22   12   42 1
  23   13   14 ar
  24   13   43 1
  25   14   44 1
  26   16   17 ar
  27   16   21 ar
  28   17   18 ar
  29   17   45 1
  30   18   19 ar
  31   18   46 1
  32   19   20 ar
  33   19   22 1
  34   20   21 ar
  35   20   47 1
  36   22   26 1
  37   23   24 ar
  38   23   32 ar
  39   24   25 ar
  40   24   48 1
  41   25   26 ar
  42   25   49 1
  43   26   27 ar
  44   27   28 ar
  45   27   32 ar
  46   28   29 ar
  47   28   50 1
  48   29   30 ar
  49   29   51 1
  50   30   31 ar
  51   30   33 1
  52   31   32 ar
  53   31   52 1
  54   33   34 1
  55   34   53 1
  56   34   54 1
  57   34   55 1
  58   35   56 1
  59   35   57 1
  60   35   58 1
  61   36   37 1
  62   36   59 1
  63   36   60 1
  64   37   38 1
  65   37   61 1
  66   37   62 1
  67   38   63 1

#	End of record

