#	Name: ASD01148713
#	Creating user name:	WinNT
#	Creation time:	15. 06. 2019 19:03

#	Modifying user name:	WinNT
#	Modification time:	15. 06. 2019 19:03

#	Program:	/corina/corina34_cracker 3.40 0067  02.08.2006

@<TRIPOS>MOLECULE
ASD01148713
  57   60    0    0    0
SMALL
NO_CHARGES


@<TRIPOS>ATOM
   1 N1            -0.0160     1.3406     0.0805 N.pl3   
   2 C2             0.0026     0.0049    -0.1115 C.2     
   3 C3             1.3185    -0.4070    -0.1549 C.2     
   4 C4             2.1213     0.7502     0.0214 C.2     
   5 C5             1.2766     1.8043     0.1629 C.2     
   6 C6             1.7987    -1.7846    -0.3474 C.2     
   7 O7             1.0021    -2.6919    -0.4876 O.2     
   8 O8             3.1219    -2.0403    -0.3682 O.3     
   9 C9            -1.1691     2.1309     0.1750 C.ar    
  10 C10           -2.0123     2.0028     1.2706 C.ar    
  11 C11           -3.1483     2.7832     1.3609 C.ar    
  12 C12           -3.4462     3.6914     0.3616 C.ar    
  13 C13           -2.6083     3.8213    -0.7308 C.ar    
  14 C14           -1.4678     3.0478    -0.8240 C.ar    
  15 S15           -4.8966     4.6848     0.4801 S.o2    
  16 O16           -5.2289     5.0696    -0.8468 O.2     
  17 O17           -5.7923     3.9868     1.3343 O.2     
  18 N18           -4.4758     6.0734     1.2782 N.am    
  19 C19           -1.2062    -0.8839    -0.2533 C.3     
  20 C20            2.4311     5.8516     0.7569 C.ar    
  21 C21            3.3312     4.9450     0.1966 C.ar    
  22 C22            2.9583     3.6337     0.0043 C.ar    
  23 C23            1.6782     3.2113     0.3699 C.ar    
  24 C24            0.7776     4.1198     0.9307 C.ar    
  25 C25            1.1525     5.4306     1.1227 C.ar    
  26 C26            2.8355     7.2623     0.9688 C.ar    
  27 C27            1.9382     8.1706     1.5285 C.ar    
  28 C28            2.3197     9.4821     1.7240 C.ar    
  29 C29            3.5910     9.8967     1.3649 C.ar    
  30 C30            4.4859     8.9986     0.8087 C.ar    
  31 C31            4.1163     7.6835     0.6143 C.ar    
  32 Cl32           4.0643    11.5485     1.6125 Cl      
  33 C33            3.5232    -3.4222    -0.5623 C.3     
  34 C34            5.0504    -3.5152    -0.5572 C.3     
  35 H35            3.2005     0.7858     0.0399 H       
  36 H36           -1.7804     1.2935     2.0513 H       
  37 H37           -3.8048     2.6838     2.2127 H       
  38 H38           -2.8438     4.5312    -1.5099 H       
  39 H39           -0.8115     3.1528    -1.6752 H       
  40 H40           -4.9422     6.9024     1.0880 H       
  41 H41           -3.7630     6.0578     1.9359 H       
  42 H42           -1.4859    -0.9517    -1.3046 H       
  43 H43           -0.9720    -1.8788     0.1253 H       
  44 H44           -2.0348    -0.4639     0.3168 H       
  45 H45            4.3209     5.2719    -0.0863 H       
  46 H46            3.6551     2.9322    -0.4301 H       
  47 H47           -0.2126     3.7942     1.2134 H       
  48 H48            0.4563     6.1331     1.5564 H       
  49 H49            0.9461     7.8484     1.8082 H       
  50 H50            1.6253    10.1866     2.1575 H       
  51 H51            5.4764     9.3269     0.5303 H       
  52 H52            4.8165     6.9827     0.1841 H       
  53 H53            3.1193    -4.0345     0.2439 H       
  54 H54            3.1405    -3.7809    -1.5178 H       
  55 H55            5.3517    -4.5526    -0.7029 H       
  56 H56            5.4544    -2.9029    -1.3634 H       
  57 H57            5.4331    -3.1565     0.3983 H       
@<TRIPOS>BOND
   1    1    2 1
   2    1    5 1
   3    1    9 1
   4    2    3 2
   5    2   19 1
   6    3    4 1
   7    3    6 1
   8    4    5 2
   9    4   35 1
  10    5   23 1
  11    6    7 2
  12    6    8 1
  13    8   33 1
  14    9   10 ar
  15    9   14 ar
  16   10   11 ar
  17   10   36 1
  18   11   12 ar
  19   11   37 1
  20   12   13 ar
  21   12   15 1
  22   13   14 ar
  23   13   38 1
  24   14   39 1
  25   15   16 2
  26   15   17 2
  27   15   18 am
  28   18   40 1
  29   18   41 1
  30   19   42 1
  31   19   43 1
  32   19   44 1
  33   20   21 ar
  34   20   25 ar
  35   20   26 1
  36   21   22 ar
  37   21   45 1
  38   22   23 ar
  39   22   46 1
  40   23   24 ar
  41   24   25 ar
  42   24   47 1
  43   25   48 1
  44   26   27 ar
  45   26   31 ar
  46   27   28 ar
  47   27   49 1
  48   28   29 ar
  49   28   50 1
  50   29   30 ar
  51   29   32 1
  52   30   31 ar
  53   30   51 1
  54   31   52 1
  55   33   34 1
  56   33   53 1
  57   33   54 1
  58   34   55 1
  59   34   56 1
  60   34   57 1

#	End of record

