#	Name: ASD01880771
#	Creating user name:	WinNT
#	Creation time:	15. 06. 2019 19:41

#	Modifying user name:	WinNT
#	Modification time:	15. 06. 2019 19:41

#	Program:	/corina/corina34_cracker 3.40 0067  02.08.2006

@<TRIPOS>MOLECULE
ASD01880771
  44   46    0    0    0
SMALL
NO_CHARGES


@<TRIPOS>ATOM
   1 N1            -0.0195     1.3064     0.0287 N.ar    
   2 C2             0.0060    -0.0109     0.0034 C.ar    
   3 N3             1.1399    -0.6822    -0.0300 N.ar    
   4 C4             2.3021    -0.0498    -0.0398 C.ar    
   5 C5             2.3158     1.3361    -0.0144 C.ar    
   6 C6             1.1036     2.0066     0.0209 C.ar    
   7 C7             3.6176     2.0952    -0.0239 C.3     
   8 O8             4.0746     2.2401    -1.3701 O.3     
   9 C9             5.2429     2.9053    -1.5558 C.ar    
  10 C10            5.7452     3.0822    -2.8414 C.ar    
  11 C11            6.9268     3.7556    -3.0279 C.ar    
  12 C12            7.6310     4.2664    -1.9325 C.ar    
  13 C13            7.1218     4.0864    -0.6435 C.ar    
  14 C14            5.9334     3.4142    -0.4624 C.ar    
  15 C15            7.7293     4.1132    -4.2541 C.3     
  16 N16            8.9070     4.8449    -3.7740 N.am    
  17 C17            8.8463     4.9310    -2.4340 C.2     
  18 O18            9.6762     5.4798    -1.7352 O.2     
  19 C19            3.5934    -0.8258    -0.0775 C.3     
  20 C20            7.8697     4.6307     0.5462 C.3     
  21 C21            1.0646     3.5129     0.0490 C.3     
  22 F22            1.7889     4.0184    -1.0359 F       
  23 F23           -0.2629     3.9466    -0.0338 F       
  24 F24            1.6316     3.9718     1.2428 F       
  25 C25            9.6199     6.8232    -5.0228 C.3     
  26 C26            9.9738     5.3912    -4.6164 C.3     
  27 H27           -0.9269    -0.5549     0.0106 H       
  28 H28            3.4667     3.0807     0.4167 H       
  29 H29            4.3614     1.5482     0.5555 H       
  30 H30            5.2064     2.6898    -3.6912 H       
  31 H31            5.5403     3.2757     0.5339 H       
  32 H32            8.0380     3.2080    -4.7770 H       
  33 H33            7.1391     4.7464    -4.9166 H       
  34 H34            3.8860    -0.9942    -1.1139 H       
  35 H35            4.3726    -0.2594     0.4326 H       
  36 H36            3.4557    -1.7849     0.4216 H       
  37 H37            7.5338     5.6468     0.7527 H       
  38 H38            7.6781     4.0010     1.4151 H       
  39 H39            8.9383     4.6379     0.3313 H       
  40 H40            8.6824     6.8218    -5.5790 H       
  41 H41            9.5114     7.4382    -4.1294 H       
  42 H42           10.4136     7.2297    -5.6496 H       
  43 H43           10.9113     5.3926    -4.0602 H       
  44 H44           10.0823     4.7762    -5.5098 H       
@<TRIPOS>BOND
   1    1    2 ar
   2    1    6 ar
   3    2    3 ar
   4    2   27 1
   5    3    4 ar
   6    4    5 ar
   7    4   19 1
   8    5    6 ar
   9    5    7 1
  10    6   21 1
  11    7    8 1
  12    7   28 1
  13    7   29 1
  14    8    9 1
  15    9   10 ar
  16    9   14 ar
  17   10   11 ar
  18   10   30 1
  19   11   12 ar
  20   11   15 1
  21   12   13 ar
  22   12   17 1
  23   13   14 ar
  24   13   20 1
  25   14   31 1
  26   15   16 1
  27   15   32 1
  28   15   33 1
  29   16   17 am
  30   16   26 1
  31   17   18 2
  32   19   34 1
  33   19   35 1
  34   19   36 1
  35   20   37 1
  36   20   38 1
  37   20   39 1
  38   21   22 1
  39   21   23 1
  40   21   24 1
  41   25   26 1
  42   25   40 1
  43   25   41 1
  44   25   42 1
  45   26   43 1
  46   26   44 1

#	End of record

