#	Name: ASD01200336
#	Creating user name:	WinNT
#	Creation time:	15. 06. 2019 19:09

#	Modifying user name:	WinNT
#	Modification time:	15. 06. 2019 19:09

#	Program:	/corina/corina34_cracker 3.40 0067  02.08.2006

@<TRIPOS>MOLECULE
ASD01200336
  55   58    0    0    0
SMALL
NO_CHARGES


@<TRIPOS>ATOM
   1 Cl1           -1.1294   -11.6778     6.9488 Cl      
   2 C2            -0.0930     1.3713     1.0513 C.3     
   3 N3            -0.0878    -2.3388     1.3678 N.ar    
   4 O4             0.1756    -4.6241     1.9937 O.2     
   5 C5            -0.0504    -0.0909     0.6890 C.ar    
   6 N6             0.0556    -4.1166    -0.1626 N.am    
   7 O7             2.4200    -6.5433     0.4959 O.3     
   8 C8             0.0639    -0.4816    -0.6384 C.ar    
   9 N9            -0.8021   -10.0983     4.9471 N.2     
  10 O10           -0.0630    -7.2130     1.7789 O.3     
  11 C11            0.1000    -1.8341    -0.9276 C.ar    
  12 N12           -1.5219   -10.9399     4.0919 N.pl3   
  13 C13            0.0210    -2.7508     0.1148 C.ar    
  14 N14           -2.0930   -10.7419     1.6778 N.ar    
  15 C15           -0.1241    -1.0559     1.6737 C.ar    
  16 N16           -1.3013    -8.8295     0.6435 N.ar    
  17 C17            0.0848    -5.0088     0.8472 C.2     
  18 N18           -2.7644   -12.8627     3.5518 N.ar    
  19 C19            0.0046    -6.4843     0.5515 C.3     
  20 C20            1.2470    -6.9161    -0.2302 C.3     
  21 C21            3.6425    -6.9029    -0.1507 C.3     
  22 C22            4.0944    -5.7583    -1.0599 C.3     
  23 C23            4.7177    -7.1710     0.9043 C.3     
  24 C24           -0.7355    -8.3877     1.7599 C.ar    
  25 C25           -0.8499    -9.1702     2.9201 C.ar    
  26 C26           -0.3899    -9.0467     4.2964 C.2     
  27 C27           -1.5606   -10.3852     2.8444 C.ar    
  28 C28           -1.9584    -9.9758     0.6173 C.ar    
  29 C29           -2.1070   -12.1546     4.4560 C.ar    
  30 C30           -1.9931   -12.6094     5.7657 C.ar    
  31 C31           -2.5779   -13.8158     6.1125 C.ar    
  32 C32           -3.2583   -14.5272     5.1337 C.ar    
  33 C33           -3.3314   -14.0150     3.8533 C.ar    
  34 H34           -1.1273     1.7152     1.0530 H       
  35 H35            0.3386     1.5128     2.0422 H       
  36 H36            0.4790     1.9434     0.3208 H       
  37 H37            0.0587    -4.4248    -1.0823 H       
  38 H38            0.1234     0.2536    -1.4272 H       
  39 H39            0.1879    -2.1732    -1.9492 H       
  40 H40           -0.2135    -0.7568     2.7076 H       
  41 H41           -0.8869    -6.6881    -0.0416 H       
  42 H42            1.2517    -6.4267    -1.2041 H       
  43 H43            1.2326    -7.9973    -0.3669 H       
  44 H44            3.4872    -7.8015    -0.7477 H       
  45 H45            4.2497    -4.8597    -0.4628 H       
  46 H46            5.0269    -6.0325    -1.5531 H       
  47 H47            3.3284    -5.5672    -1.8114 H       
  48 H48            4.3959    -7.9865     1.5520 H       
  49 H49            5.6503    -7.4453     0.4111 H       
  50 H50            4.8731    -6.2724     1.5013 H       
  51 H51            0.1882    -8.2307     4.7044 H       
  52 H52           -2.4035   -10.2964    -0.3130 H       
  53 H53           -2.5059   -14.1948     7.1213 H       
  54 H54           -3.7256   -15.4715     5.3711 H       
  55 H55           -3.8600   -14.5649     3.0888 H       
@<TRIPOS>BOND
   1    1   30 1
   2    2    5 1
   3    2   34 1
   4    2   35 1
   5    2   36 1
   6    3   13 ar
   7    3   15 ar
   8    4   17 2
   9    5    8 ar
  10    5   15 ar
  11    6   13 1
  12    6   17 am
  13    6   37 1
  14    7   20 1
  15    7   21 1
  16    8   11 ar
  17    8   38 1
  18    9   12 1
  19    9   26 2
  20   10   19 1
  21   10   24 1
  22   11   13 ar
  23   11   39 1
  24   12   27 1
  25   12   29 1
  26   14   27 ar
  27   14   28 ar
  28   15   40 1
  29   16   24 ar
  30   16   28 ar
  31   17   19 1
  32   18   29 ar
  33   18   33 ar
  34   19   20 1
  35   19   41 1
  36   20   42 1
  37   20   43 1
  38   21   22 1
  39   21   23 1
  40   21   44 1
  41   22   45 1
  42   22   46 1
  43   22   47 1
  44   23   48 1
  45   23   49 1
  46   23   50 1
  47   24   25 ar
  48   25   26 1
  49   25   27 ar
  50   26   51 1
  51   28   52 1
  52   29   30 ar
  53   30   31 ar
  54   31   32 ar
  55   31   53 1
  56   32   33 ar
  57   32   54 1
  58   33   55 1

#	End of record

