#	Name: ASD07930898
#	Creating user name:	WinNT
#	Creation time:	15. 06. 2019 21:13

#	Modifying user name:	WinNT
#	Modification time:	15. 06. 2019 21:13

#	Program:	/corina/corina34_cracker 3.40 0067  02.08.2006

@<TRIPOS>MOLECULE
ASD07930898
  53   57    0    0    0
SMALL
NO_CHARGES


@<TRIPOS>ATOM
   1 C1            -0.0168     1.3904     0.0097 C.ar    
   2 C2             0.0021    -0.0041     0.0020 C.ar    
   3 C3             1.2217    -0.6600    -0.0131 C.ar    
   4 C4             2.3820     0.0999    -0.0201 C.ar    
   5 C5             2.2893     1.4814    -0.0118 C.ar    
   6 N6             1.1177     2.0803     0.0026 N.ar    
   7 C7            -1.2698     2.0837     0.0194 C.1     
   8 N8            -2.2637     2.6337     0.0270 N.1     
   9 C9             3.7309    -0.5718    -0.0361 C.3     
  10 N10            5.3336    -1.4830    -5.3983 N.2     
  11 C11            5.0936    -2.6318    -5.9600 C.2     
  12 N12            4.4657    -3.6516    -5.3230 N.am    
  13 C13            4.0525    -3.5102    -4.0421 C.2     
  14 C14            4.3126    -2.2226    -3.3854 C.ar    
  15 C15            3.9233    -1.9795    -2.0590 C.ar    
  16 C16            4.1673    -0.7885    -1.4621 C.ar    
  17 C17            4.8225     0.2527    -2.1523 C.ar    
  18 C18            5.2363     0.0595    -3.4930 C.ar    
  19 C19            4.9702    -1.2267    -4.1304 C.ar    
  20 C20            5.8850     1.0953    -4.1728 C.ar    
  21 C21            6.1129     2.2815    -3.5383 C.ar    
  22 C22            5.7078     2.4747    -2.2216 C.ar    
  23 C23            5.0733     1.4857    -1.5309 C.ar    
  24 O24            3.4867    -4.4158    -3.4566 O.2     
  25 C25            4.2326    -4.9150    -6.0269 C.3     
  26 C26            3.3678    -4.6583    -7.2627 C.3     
  27 C27            3.1244    -5.9779    -7.9979 C.3     
  28 C28            4.4650    -6.5764    -8.4289 C.3     
  29 C29            5.3297    -6.8331    -7.1931 C.3     
  30 C30            5.5731    -5.5135    -6.4579 C.3     
  31 O31            2.1158    -4.0993    -6.8603 O.3     
  32 H32           -0.9212    -0.5644     0.0082 H       
  33 H33            1.2683    -1.7390    -0.0190 H       
  34 H34            3.1911     2.0756    -0.0172 H       
  35 H35            4.4576     0.0603     0.4742 H       
  36 H36            3.6642    -1.5330     0.4736 H       
  37 H37            5.4091    -2.7804    -6.9822 H       
  38 H38            3.4187    -2.7566    -1.5042 H       
  39 H39            6.2044     0.9568    -5.1952 H       
  40 H40            6.6143     3.0803    -4.0646 H       
  41 H41            5.8992     3.4219    -1.7394 H       
  42 H42            4.7643     1.6504    -0.5092 H       
  43 H43            3.7203    -5.6116    -5.3633 H       
  44 H44            3.8802    -3.9618    -7.9264 H       
  45 H45            2.6121    -6.6744    -7.3343 H       
  46 H46            2.5084    -5.7950    -8.8783 H       
  47 H47            4.2916    -7.5164    -8.9526 H       
  48 H48            4.9773    -5.8798    -9.0925 H       
  49 H49            4.8174    -7.5296    -6.5294 H       
  50 H50            6.2847    -7.2595    -7.5001 H       
  51 H51            6.0855    -4.8170    -7.1215 H       
  52 H52            6.1892    -5.6964    -5.5775 H       
  53 H53            1.5153    -3.9104    -7.5943 H       
@<TRIPOS>BOND
   1    1    2 ar
   2    1    6 ar
   3    1    7 1
   4    2    3 ar
   5    2   32 1
   6    3    4 ar
   7    3   33 1
   8    4    5 ar
   9    4    9 1
  10    5    6 ar
  11    5   34 1
  12    7    8 3
  13    9   16 1
  14    9   35 1
  15    9   36 1
  16   10   11 2
  17   10   19 1
  18   11   12 1
  19   11   37 1
  20   12   13 am
  21   12   25 1
  22   13   14 1
  23   13   24 2
  24   14   15 ar
  25   14   19 ar
  26   15   16 ar
  27   15   38 1
  28   16   17 ar
  29   17   18 ar
  30   17   23 ar
  31   18   19 ar
  32   18   20 ar
  33   20   21 ar
  34   20   39 1
  35   21   22 ar
  36   21   40 1
  37   22   23 ar
  38   22   41 1
  39   23   42 1
  40   25   26 1
  41   25   30 1
  42   25   43 1
  43   26   27 1
  44   26   31 1
  45   26   44 1
  46   27   28 1
  47   27   45 1
  48   27   46 1
  49   28   29 1
  50   28   47 1
  51   28   48 1
  52   29   30 1
  53   29   49 1
  54   29   50 1
  55   30   51 1
  56   30   52 1
  57   31   53 1

#	End of record

