#	Name: ASD08151056
#	Creating user name:	WinNT
#	Creation time:	15. 06. 2019 21:17

#	Modifying user name:	WinNT
#	Modification time:	15. 06. 2019 21:17

#	Program:	/corina/corina34_cracker 3.40 0067  02.08.2006

@<TRIPOS>MOLECULE
ASD08151056
  52   55    0    0    0
SMALL
NO_CHARGES


@<TRIPOS>ATOM
   1 N1             4.0422     2.9863     2.9476 N.2     
   2 C2             5.0162     2.2912     3.4594 C.2     
   3 N3             6.0637     2.2456     2.5882 N.pl3   
   4 C4             5.7031     2.9597     1.4736 C.ar    
   5 N5             6.2919     3.2609     0.3210 N.ar    
   6 C6             5.6680     3.9891    -0.5810 C.ar    
   7 N7             4.4458     4.4531    -0.3955 N.ar    
   8 C8             3.7776     4.2034     0.7260 C.ar    
   9 C9             4.4017     3.4296     1.7190 C.ar    
  10 N10            2.4971     4.6944     0.9115 N.pl3   
  11 C11            1.8627     5.4999    -0.1349 C.3     
  12 C12            1.2615     4.5757    -1.1957 C.3     
  13 N13            0.3434     9.3601     2.4733 N.ar    
  14 N14           -0.5977    10.0699     2.9849 N.ar    
  15 C15           -1.8834     9.7745     2.8542 C.ar    
  16 C16           -2.2785     8.6713     2.1500 C.ar    
  17 C17           -1.2722     7.8716     1.5762 C.ar    
  18 C18           -1.5694     6.7177     0.8344 C.ar    
  19 C19           -0.5576     5.9764     0.2975 C.ar    
  20 C20            0.7718     6.3437     0.4727 C.ar    
  21 C21            1.1065     7.4736     1.1979 C.ar    
  22 C22            0.0779     8.2616     1.7658 C.ar    
  23 C23            3.2898     8.2786     0.2895 C.ar    
  24 C24            2.5269     7.8543     1.3773 C.ar    
  25 C25            3.1243     7.7946     2.6400 C.ar    
  26 C26            4.4561     8.1621     2.7546 C.ar    
  27 C27            5.1446     8.5724     1.6248 C.ar    
  28 N28            4.5524     8.6179     0.4469 N.ar    
  29 F29            5.0754     8.1208     3.9546 F       
  30 Cl30          -3.2205     6.2354     0.5998 Cl      
  31 H31            4.9974     1.8203     4.4311 H       
  32 H32            6.9091     1.7917     2.7305 H       
  33 H33            6.1750     4.2158    -1.5073 H       
  34 H34            2.0196     4.5053     1.7344 H       
  35 H35            2.6079     6.1472    -0.5971 H       
  36 H36            0.6991     5.1683    -1.9173 H       
  37 H37            2.0618     4.0424    -1.7087 H       
  38 H38            0.5953     3.8580    -0.7170 H       
  39 H39           -2.6269    10.4122     3.3093 H       
  40 H40           -3.3235     8.4225     2.0384 H       
  41 H41           -0.7932     5.0896    -0.2721 H       
  42 H42            2.8419     8.3251    -0.6921 H       
  43 H43            2.5626     7.4709     3.5038 H       
  44 H44            6.1822     8.8599     1.7096 H       
  45 C45           13.0805    17.4004    10.5779 C.2     
  46 C46           13.1009    15.8936    10.5697 C.3     
  47 O47           14.1186    18.0187    10.5714 O.2     
  48 O48           11.9091    18.0557    10.5871 O.3     
  49 F49           14.4261    15.4452    10.5546 F       
  50 F50           12.4588    15.4122    11.7156 F       
  51 F51           12.4370    15.4244     9.4311 F       
  52 H52           11.9466    19.0219    10.5921 H       
@<TRIPOS>BOND
   1    1    2 2
   2    1    9 1
   3    2    3 1
   4    2   31 1
   5    3    4 1
   6    3   32 1
   7    4    5 ar
   8    4    9 ar
   9    5    6 ar
  10    6    7 ar
  11    6   33 1
  12    7    8 ar
  13    8    9 ar
  14    8   10 1
  15   10   11 1
  16   10   34 1
  17   11   12 1
  18   11   20 1
  19   11   35 1
  20   12   36 1
  21   12   37 1
  22   12   38 1
  23   13   14 ar
  24   13   22 ar
  25   14   15 ar
  26   15   16 ar
  27   15   39 1
  28   16   17 ar
  29   16   40 1
  30   17   18 ar
  31   17   22 ar
  32   18   19 ar
  33   18   30 1
  34   19   20 ar
  35   19   41 1
  36   20   21 ar
  37   21   22 ar
  38   21   24 1
  39   23   24 ar
  40   23   28 ar
  41   23   42 1
  42   24   25 ar
  43   25   26 ar
  44   25   43 1
  45   26   27 ar
  46   26   29 1
  47   27   28 ar
  48   27   44 1
  49   45   46 1
  50   45   47 2
  51   45   48 1
  52   46   49 1
  53   46   50 1
  54   46   51 1
  55   48   52 1

#	End of record

