#	Name: ASD01028185
#	Creating user name:	WinNT
#	Creation time:	15. 06. 2019 18:56

#	Modifying user name:	WinNT
#	Modification time:	15. 06. 2019 18:56

#	Program:	/corina/corina34_cracker 3.40 0067  02.08.2006

@<TRIPOS>MOLECULE
ASD01028185
  27   29    0    0    0
SMALL
NO_CHARGES


@<TRIPOS>ATOM
   1 C1            -0.0173     1.4248     0.0099 C.3     
   2 O2             0.0021    -0.0041     0.0020 O.3     
   3 C3             3.3494     2.6724    -0.6325 C.2     
   4 C4             4.3458     3.0477    -1.5534 C.2     
   5 C5             4.0837     2.9624    -2.8843 C.2     
   6 C6             2.8262     2.5030    -3.3298 C.2     
   7 N7             1.8952     2.1516    -2.4706 N.2     
   8 N8             2.1341     2.2282    -1.0970 N.pl3   
   9 N9             2.1325     2.2063     1.0510 N.2     
  10 N10            3.2914     2.6341     0.6887 N.2     
  11 C11            1.3965     1.9464    -0.0008 C.2     
  12 C12            2.5515     2.4147    -4.7851 C.ar    
  13 C13            1.3133     1.9624    -5.2370 C.ar    
  14 C14            1.0633     1.8822    -6.5919 C.ar    
  15 C15            2.0393     2.2493    -7.5008 C.ar    
  16 C16            3.2703     2.6985    -7.0579 C.ar    
  17 C17            3.5289     2.7891    -5.7052 C.ar    
  18 H18           -0.5445     1.7859    -0.8732 H       
  19 H19           -0.5275     1.7763     0.9067 H       
  20 H20           -0.8759    -0.4094     0.0082 H       
  21 H21            5.3063     3.3993    -1.2067 H       
  22 H22            4.8390     3.2471    -3.6019 H       
  23 H23            0.5508     1.6748    -4.5282 H       
  24 H24            0.1040     1.5319    -6.9432 H       
  25 H25            1.8395     2.1847    -8.5602 H       
  26 H26            4.0290     2.9832    -7.7719 H       
  27 H27            4.4887     3.1445    -5.3605 H       
@<TRIPOS>BOND
   1    1    2 1
   2    1   11 1
   3    1   18 1
   4    1   19 1
   5    2   20 1
   6    3    4 1
   7    3    8 1
   8    3   10 2
   9    4    5 2
  10    4   21 1
  11    5    6 1
  12    5   22 1
  13    6    7 2
  14    6   12 1
  15    7    8 1
  16    8   11 1
  17    9   10 1
  18    9   11 2
  19   12   13 ar
  20   12   17 ar
  21   13   14 ar
  22   13   23 1
  23   14   15 ar
  24   14   24 1
  25   15   16 ar
  26   15   25 1
  27   16   17 ar
  28   16   26 1
  29   17   27 1

#	End of record

