#	Name: ASD03731770
#	Creating user name:	WinNT
#	Creation time:	15. 06. 2019 20:46

#	Modifying user name:	WinNT
#	Modification time:	15. 06. 2019 20:46

#	Program:	/corina/corina34_cracker 3.40 0067  02.08.2006

@<TRIPOS>MOLECULE
ASD03731770
  40   41    0    0    0
SMALL
NO_CHARGES


@<TRIPOS>ATOM
   1 C1             0.3766     1.0890     1.9841 C.2     
   2 C2             0.2926    -0.2838     1.4566 C.ar    
   3 C3             1.3793    -0.8402     0.7652 C.ar    
   4 C4             1.2919    -2.1323     0.2728 C.ar    
   5 C5             0.1319    -2.8715     0.4644 C.ar    
   6 C6            -0.9458    -2.3196     1.1495 C.ar    
   7 C7            -0.8683    -1.0395     1.6480 C.ar    
   8 O8             1.3893     1.7423     1.8206 O.2     
   9 N9            -0.6709     1.6229     2.6430 N.am    
  10 S10           -0.5765     3.1662     3.2360 S.o2    
  11 O11           -1.8281     3.3727     3.8764 O.2     
  12 O12            0.6366     3.1838     3.9758 O.2     
  13 C13           -0.4368     4.2107     1.7595 C.3     
  14 O14            2.5115    -0.1154     0.5791 O.3     
  15 C15            3.5202    -0.2177     1.5861 C.3     
  16 F16            2.3351    -2.6730    -0.3941 F       
  17 O17            0.0491    -4.1373    -0.0192 O.3     
  18 C18           -1.1393    -4.7868     0.0933 C.ar    
  19 C19           -2.0933    -4.6684    -0.9076 C.ar    
  20 C20           -3.3003    -5.3296    -0.7916 C.ar    
  21 C21           -3.5588    -6.1096     0.3220 C.ar    
  22 C22           -2.6091    -6.2290     1.3209 C.ar    
  23 C23           -1.3983    -5.5737     1.2060 C.ar    
  24 C24           -4.3366    -5.2014    -1.8782 C.3     
  25 Cl25          -5.0772    -6.9388     0.4659 Cl      
  26 H26           -1.8452    -2.8998     1.2944 H       
  27 H27           -1.7057    -0.6167     2.1832 H       
  28 H28           -1.4800     1.1032     2.7699 H       
  29 H29           -1.3156     4.0697     1.1302 H       
  30 H30           -0.3687     5.2565     2.0594 H       
  31 H31            0.4578     3.9337     1.2018 H       
  32 H32            4.3693     0.4097     1.3149 H       
  33 H33            3.1143     0.1134     2.5419 H       
  34 H34            3.8465    -1.2544     1.6695 H       
  35 H35           -1.8922    -4.0592    -1.7764 H       
  36 H36           -2.8128    -6.8382     2.1891 H       
  37 H37           -0.6554    -5.6707     1.9840 H       
  38 H38           -4.1853    -5.9865    -2.6190 H       
  39 H39           -5.3318    -5.2980    -1.4443 H       
  40 H40           -4.2421    -4.2268    -2.3572 H       
@<TRIPOS>BOND
   1    1    2 1
   2    1    8 2
   3    1    9 am
   4    2    3 ar
   5    2    7 ar
   6    3    4 ar
   7    3   14 1
   8    4    5 ar
   9    4   16 1
  10    5    6 ar
  11    5   17 1
  12    6    7 ar
  13    6   26 1
  14    7   27 1
  15    9   10 am
  16    9   28 1
  17   10   11 2
  18   10   12 2
  19   10   13 1
  20   13   29 1
  21   13   30 1
  22   13   31 1
  23   14   15 1
  24   15   32 1
  25   15   33 1
  26   15   34 1
  27   17   18 1
  28   18   19 ar
  29   18   23 ar
  30   19   20 ar
  31   19   35 1
  32   20   21 ar
  33   20   24 1
  34   21   22 ar
  35   21   25 1
  36   22   23 ar
  37   22   36 1
  38   23   37 1
  39   24   38 1
  40   24   39 1
  41   24   40 1

#	End of record

