#	Name: ASD01890570
#	Creating user name:	WinNT
#	Creation time:	15. 06. 2019 19:51

#	Modifying user name:	WinNT
#	Modification time:	15. 06. 2019 19:51

#	Program:	/corina/corina34_cracker 3.40 0067  02.08.2006

@<TRIPOS>MOLECULE
ASD01890570
  37   39    0    0    0
SMALL
NO_CHARGES


@<TRIPOS>ATOM
   1 C1            -0.8646    -0.2202    -1.0802 C.2     
   2 C2            -0.0696     0.1285     0.1517 C.3     
   3 C3             1.2898    -0.5715     0.0965 C.3     
   4 C4             2.1534    -0.1015     1.2687 C.3     
   5 O5            -0.3550    -0.8655    -1.9654 O.2     
   6 O6            -2.1405     0.1815    -1.1914 O.3     
   7 C7             2.4657     1.3639     1.1068 C.2     
   8 N8             3.0289     1.8948     0.0610 N.2     
   9 C9             3.1628     3.2335     0.2448 C.ar    
  10 C10            2.6327     3.5278     1.5125 C.ar    
  11 N11            2.1944     2.3250     2.0304 N.pl3   
  12 C12            3.6875     4.2652    -0.5377 C.ar    
  13 C13            3.6800     5.5566    -0.0605 C.ar    
  14 C14            3.1552     5.8418     1.1924 C.ar    
  15 C15            2.6331     4.8356     1.9769 C.ar    
  16 I16            4.4675     7.1030    -1.2342 I       
  17 C17            1.0909    -2.0627     0.1852 C.ar    
  18 C18            1.5231    -2.8807    -0.8434 C.ar    
  19 C19            1.3402    -4.2492    -0.7614 C.ar    
  20 C20            0.7258    -4.7990     0.3481 C.ar    
  21 C21            0.2937    -3.9813     1.3753 C.ar    
  22 C22            0.4818    -2.6137     1.2966 C.ar    
  23 Br23           2.3630    -2.1280    -2.3612 Br      
  24 H24            0.0789     1.2075     0.1950 H       
  25 H25           -0.6114    -0.1996     1.0387 H       
  26 H26            1.7868    -0.3265    -0.8422 H       
  27 H27            1.6138    -0.2570     2.2029 H       
  28 H28            3.0826    -0.6712     1.2867 H       
  29 H29           -2.6098    -0.0662    -1.9998 H       
  30 H30            1.7734     2.1901     2.8938 H       
  31 H31            4.0978     4.0503    -1.5134 H       
  32 H32            3.1557     6.8591     1.5551 H       
  33 H33            2.2262     5.0643     2.9508 H       
  34 H34            1.6772    -4.8881    -1.5643 H       
  35 H35            0.5829    -5.8676     0.4122 H       
  36 H36           -0.1870    -4.4111     2.2417 H       
  37 H37            0.1484    -1.9756     2.1016 H       
@<TRIPOS>BOND
   1    1    2 1
   2    1    5 2
   3    1    6 1
   4    2    3 1
   5    2   24 1
   6    2   25 1
   7    3    4 1
   8    3   17 1
   9    3   26 1
  10    4    7 1
  11    4   27 1
  12    4   28 1
  13    6   29 1
  14    7    8 2
  15    7   11 1
  16    8    9 1
  17    9   10 ar
  18    9   12 ar
  19   10   11 1
  20   10   15 ar
  21   11   30 1
  22   12   13 ar
  23   12   31 1
  24   13   14 ar
  25   13   16 1
  26   14   15 ar
  27   14   32 1
  28   15   33 1
  29   17   18 ar
  30   17   22 ar
  31   18   19 ar
  32   18   23 1
  33   19   20 ar
  34   19   34 1
  35   20   21 ar
  36   20   35 1
  37   21   22 ar
  38   21   36 1
  39   22   37 1

#	End of record

