#	Name: ASD03082280
#	Creating user name:	WinNT
#	Creation time:	15. 06. 2019 20:27

#	Modifying user name:	WinNT
#	Modification time:	15. 06. 2019 20:27

#	Program:	/corina/corina34_cracker 3.40 0067  02.08.2006

@<TRIPOS>MOLECULE
ASD03082280
  54   58    0    0    0
SMALL
NO_CHARGES


@<TRIPOS>ATOM
   1 N1            -0.0490     2.4205     0.4871 N.am    
   2 N2             0.4588     1.1169     0.3640 N.2     
   3 C3             1.7636     1.2198     0.2740 C.2     
   4 N4             2.1101     2.5088     0.3328 N.2     
   5 C5             1.0321     3.2544     0.4616 C.2     
   6 N6             2.6495     0.1519     0.1387 N.pl3   
   7 C7             2.1766    -1.1613     0.2071 C.ar    
   8 C8             2.8296    -2.1724    -0.4850 C.ar    
   9 C9             2.3574    -3.4732    -0.4147 C.ar    
  10 C10            1.2335    -3.7626     0.3469 C.ar    
  11 C11            0.5847    -2.7553     1.0351 C.ar    
  12 C12            1.0555    -1.4580     0.9723 C.ar    
  13 O13            2.9941    -4.4651    -1.0912 O.3     
  14 C14            0.9984     4.7284     0.5600 C.ar    
  15 C15           -1.3437     2.7771     0.6016 C.2     
  16 C16            2.0178     5.4088     1.2276 C.ar    
  17 C17            1.9832     6.7892     1.3183 C.ar    
  18 C18            0.9335     7.4975     0.7408 C.ar    
  19 C19           -0.0814     6.8194     0.0775 C.ar    
  20 C20           -0.0504     5.4450    -0.0197 C.ar    
  21 N21           -2.3113     1.8446     0.4983 N.am    
  22 C22           -3.7201     2.2461     0.5128 C.3     
  23 O23           -1.6386     3.9395     0.7979 O.2     
  24 C24           -4.2641     2.8685     1.8003 C.3     
  25 C25           -4.6729     1.4481     1.4051 C.3     
  26 O26            2.9807     7.4382     1.9795 O.3     
  27 C27            3.1107     8.8421     1.7307 C.3     
  28 C28            1.7146     9.4747     1.8053 C.3     
  29 O29            0.8882     8.8555     0.8139 O.3     
  30 C30           -4.2695     2.7738    -0.8140 C.3     
  31 C31            2.4523    -5.7821    -0.9733 C.3     
  32 F32            1.1359    -5.7890    -1.4469 F       
  33 F33            3.2238    -6.6729    -1.7273 F       
  34 F34            2.4668    -6.1739     0.3696 F       
  35 H35            3.5943     0.3203    -0.0029 H       
  36 H36            3.7037    -1.9453    -1.0773 H       
  37 H37            0.8654    -4.7765     0.4013 H       
  38 H38           -0.2895    -2.9833     1.6268 H       
  39 H39            0.5492    -0.6732     1.5147 H       
  40 H40            2.8329     4.8582     1.6736 H       
  41 H41           -0.8957     7.3718    -0.3678 H       
  42 H42           -0.8415     4.9218    -0.5363 H       
  43 H43           -2.0748     0.9076     0.4144 H       
  44 H44           -3.5737     2.9793     2.6365 H       
  45 H45           -5.0137     3.6537     1.7021 H       
  46 H46           -5.6915     1.2988     1.0469 H       
  47 H47           -4.2516     0.6244     1.9814 H       
  48 H48            3.7583     9.2905     2.4842 H       
  49 H49            3.5342     9.0019     0.7391 H       
  50 H50            1.2884     9.3091     2.7948 H       
  51 H51            1.7849    10.5446     1.6092 H       
  52 H52           -4.1757     2.0027    -1.5786 H       
  53 H53           -5.3198     3.0392    -0.6925 H       
  54 H54           -3.7046     3.6557    -1.1161 H       
@<TRIPOS>BOND
   1    1    2 1
   2    1    5 1
   3    1   15 am
   4    2    3 2
   5    3    4 1
   6    3    6 1
   7    4    5 2
   8    5   14 1
   9    6    7 1
  10    6   35 1
  11    7    8 ar
  12    7   12 ar
  13    8    9 ar
  14    8   36 1
  15    9   10 ar
  16    9   13 1
  17   10   11 ar
  18   10   37 1
  19   11   12 ar
  20   11   38 1
  21   12   39 1
  22   13   31 1
  23   14   16 ar
  24   14   20 ar
  25   15   21 am
  26   15   23 2
  27   16   17 ar
  28   16   40 1
  29   17   18 ar
  30   17   26 1
  31   18   19 ar
  32   18   29 1
  33   19   20 ar
  34   19   41 1
  35   20   42 1
  36   21   22 1
  37   21   43 1
  38   22   24 1
  39   22   30 1
  40   22   25 1
  41   24   25 1
  42   24   44 1
  43   24   45 1
  44   25   46 1
  45   25   47 1
  46   26   27 1
  47   27   28 1
  48   27   48 1
  49   27   49 1
  50   28   29 1
  51   28   50 1
  52   28   51 1
  53   30   52 1
  54   30   53 1
  55   30   54 1
  56   31   32 1
  57   31   33 1
  58   31   34 1

#	End of record

