#	Name: ASD03090859
#	Creating user name:	WinNT
#	Creation time:	15. 06. 2019 20:29

#	Modifying user name:	WinNT
#	Modification time:	15. 06. 2019 20:29

#	Program:	/corina/corina34_cracker 3.40 0067  02.08.2006

@<TRIPOS>MOLECULE
ASD03090859
  45   47    0    0    0
SMALL
NO_CHARGES


@<TRIPOS>ATOM
   1 N1            -0.0149     1.3421     0.1053 N.am    
   2 C2             0.0030    -0.0051     0.0723 C.2     
   3 O3            -1.0442    -0.6288     0.0752 O.2     
   4 N4             1.1687    -0.6570     0.0363 N.2     
   5 C5             1.2438     2.0918     0.1019 C.3     
   6 C6            -1.2932     2.0571     0.1387 C.3     
   7 C7            -1.7202     2.2708     1.5922 C.3     
   8 C8            -0.7201     3.1973     2.2867 C.3     
   9 C9            -3.1121     2.9052     1.6268 C.3     
  10 S10           -0.1729    -3.0447     0.0008 S.3     
  11 C11            1.1864    -1.9875     0.0037 C.2     
  12 N12            2.2793    -2.7909    -0.0347 N.pl3   
  13 C13            2.0560    -4.1338    -0.0639 C.2     
  14 C14            0.7906    -4.5309    -0.0521 C.2     
  15 C15            0.2795    -5.9484    -0.0787 C.3     
  16 O16            7.4851    -0.9543    -0.0528 O.3     
  17 C17            8.1209    -2.2099    -0.3569 C.3     
  18 O18            7.1778    -3.1928     0.1096 O.3     
  19 C19            5.9555    -2.5894     0.0355 C.ar    
  20 C20            6.1440    -1.2125    -0.0645 C.ar    
  21 C21            4.6733    -3.1114     0.0455 C.ar    
  22 C22            3.5781    -2.2627    -0.0443 C.ar    
  23 C23            3.7690    -0.8915    -0.1440 C.ar    
  24 C24            5.0485    -0.3694    -0.1545 C.ar    
  25 F25            8.3226    -2.3376    -1.7353 F       
  26 F26            9.3332    -2.3264     0.3315 F       
  27 H27            1.5382     2.3026    -0.9262 H       
  28 H28            1.1096     3.0295     0.6410 H       
  29 H29            2.0199     1.5008     0.5882 H       
  30 H30           -1.1819     3.0234    -0.3532 H       
  31 H31           -2.0513     1.4704    -0.3802 H       
  32 H32           -1.7454     1.3111     2.1084 H       
  33 H33           -0.6949     4.1570     1.7705 H       
  34 H34           -1.0243     3.3496     3.3222 H       
  35 H35            0.2715     2.7453     2.2620 H       
  36 H36           -3.8246     2.2452     1.1321 H       
  37 H37           -3.4163     3.0575     2.6624 H       
  38 H38           -3.0869     3.8649     1.1107 H       
  39 H39            2.8708    -4.8420    -0.0952 H       
  40 H40           -0.8103    -5.9421    -0.0608 H       
  41 H41            0.6251    -6.4422    -0.9869 H       
  42 H42            0.6541    -6.4861     0.7923 H       
  43 H43            4.5250    -4.1784     0.1226 H       
  44 H44            2.9166    -0.2319    -0.2138 H       
  45 H45            5.1947     0.6979    -0.2316 H       
@<TRIPOS>BOND
   1    1    2 am
   2    1    5 1
   3    1    6 1
   4    2    3 2
   5    2    4 1
   6    4   11 2
   7    5   27 1
   8    5   28 1
   9    5   29 1
  10    6    7 1
  11    6   30 1
  12    6   31 1
  13    7    8 1
  14    7    9 1
  15    7   32 1
  16    8   33 1
  17    8   34 1
  18    8   35 1
  19    9   36 1
  20    9   37 1
  21    9   38 1
  22   10   11 1
  23   10   14 1
  24   11   12 1
  25   12   13 1
  26   12   22 1
  27   13   14 2
  28   13   39 1
  29   14   15 1
  30   15   40 1
  31   15   41 1
  32   15   42 1
  33   16   17 1
  34   16   20 1
  35   17   18 1
  36   17   25 1
  37   17   26 1
  38   18   19 1
  39   19   20 ar
  40   19   21 ar
  41   20   24 ar
  42   21   22 ar
  43   21   43 1
  44   22   23 ar
  45   23   24 ar
  46   23   44 1
  47   24   45 1

#	End of record

