#	Name: ASD07030008
#	Creating user name:	WinNT
#	Creation time:	15. 06. 2019 21:08

#	Modifying user name:	WinNT
#	Modification time:	15. 06. 2019 21:08

#	Program:	/corina/corina34_cracker 3.40 0067  02.08.2006

@<TRIPOS>MOLECULE
ASD07030008
  44   46    0    0    0
SMALL
NO_CHARGES


@<TRIPOS>ATOM
   1 C1            -0.0187     1.5258     0.0104 C.3     
   2 C2             0.0021    -0.0041     0.0020 C.3     
   3 C3             1.3165     0.7789    -0.0063 C.3     
   4 N4            -0.4313     2.2053    -1.2248 N.3     
   5 C5            -0.9675     3.5422    -0.9364 C.3     
   6 C6            -1.3855     4.2172    -2.2442 C.3     
   7 N7            -1.9217     5.5540    -1.9557 N.3     
   8 C8            -2.1127     6.3232    -3.1933 C.3     
   9 C9            -2.7451     7.6759    -2.8576 C.3     
  10 N10           -1.8767     8.4004    -1.9193 N.3     
  11 C11           -1.6857     7.6313    -0.6818 C.3     
  12 C12           -1.0532     6.2786    -1.0174 C.3     
  13 C13           -2.4129     9.7373    -1.6308 C.3     
  14 C14           -0.3780    -0.7121     1.2769 C.ar    
  15 C15           -1.4563    -1.5770     1.2918 C.ar    
  16 C16           -1.8050    -2.2270     2.4607 C.ar    
  17 C17           -1.0748    -2.0120     3.6157 C.ar    
  18 C18            0.0041    -1.1465     3.6002 C.ar    
  19 C19            0.3553    -0.5010     2.4296 C.ar    
  20 Br20          -1.5517    -2.9005     5.2154 Br      
  21 H21           -0.3072     2.0201     0.9381 H       
  22 H22           -0.2904    -0.5063    -0.9201 H       
  23 H23            1.8888     0.7918    -0.9339 H       
  24 H24            1.9064     0.7818     0.9103 H       
  25 H25            0.3326     2.2562    -1.8820 H       
  26 H26           -1.8336     3.4526    -0.2807 H       
  27 H27           -0.2014     4.1429    -0.4462 H       
  28 H28           -0.5194     4.3068    -2.8999 H       
  29 H29           -2.1516     3.6164    -2.7344 H       
  30 H30           -1.1480     6.4824    -3.6751 H       
  31 H31           -2.7691     5.7719    -3.8665 H       
  32 H32           -2.8611     8.2597    -3.7707 H       
  33 H33           -3.7219     7.5172    -2.4006 H       
  34 H34           -1.0293     8.1826    -0.0086 H       
  35 H35           -2.6504     7.4721    -0.2000 H       
  36 H36           -0.9373     5.6947    -0.1043 H       
  37 H37           -0.0765     6.4372    -1.4745 H       
  38 H38           -3.4044     9.6433    -1.1879 H       
  39 H39           -1.7510    10.2517    -0.9341 H       
  40 H40           -2.4811    10.3089    -2.5564 H       
  41 H41           -2.0266    -1.7446     0.3901 H       
  42 H42           -2.6477    -2.9024     2.4724 H       
  43 H43            0.5743    -0.9780     4.5019 H       
  44 H44            1.2002     0.1716     2.4164 H       
@<TRIPOS>BOND
   1    1    2 1
   2    1    3 1
   3    1    4 1
   4    1   21 1
   5    2    3 1
   6    2   14 1
   7    2   22 1
   8    3   23 1
   9    3   24 1
  10    4    5 1
  11    4   25 1
  12    5    6 1
  13    5   26 1
  14    5   27 1
  15    6    7 1
  16    6   28 1
  17    6   29 1
  18    7    8 1
  19    7   12 1
  20    8    9 1
  21    8   30 1
  22    8   31 1
  23    9   10 1
  24    9   32 1
  25    9   33 1
  26   10   11 1
  27   10   13 1
  28   11   12 1
  29   11   34 1
  30   11   35 1
  31   12   36 1
  32   12   37 1
  33   13   38 1
  34   13   39 1
  35   13   40 1
  36   14   15 ar
  37   14   19 ar
  38   15   16 ar
  39   15   41 1
  40   16   17 ar
  41   16   42 1
  42   17   18 ar
  43   17   20 1
  44   18   19 ar
  45   18   43 1
  46   19   44 1

#	End of record

