#	Name: ASD01150070
#	Creating user name:	WinNT
#	Creation time:	15. 06. 2019 19:03

#	Modifying user name:	WinNT
#	Modification time:	15. 06. 2019 19:03

#	Program:	/corina/corina34_cracker 3.40 0067  02.08.2006

@<TRIPOS>MOLECULE
ASD01150070
  45   47    0    0    0
SMALL
NO_CHARGES


@<TRIPOS>ATOM
   1 C1            -0.0168     1.3850     0.0097 C.2     
   2 C2             0.0021    -0.0041     0.0020 C.2     
   3 N3            -1.2678    -0.4172     0.0119 N.2     
   4 C4            -2.0703     0.6165     0.0251 C.2     
   5 N5            -1.3471     1.7532     0.0298 N.pl3   
   6 C6            -1.8728     3.1206     0.0440 C.3     
   7 C7            -3.5756     0.5459     0.0391 C.3     
   8 C8            -4.0713     0.5149     1.4862 C.3     
   9 C9             1.2064     2.0895     0.0018 C.2     
  10 N10            2.3649     1.3979    -0.0130 N.am    
  11 C11            2.3684     0.0537    -0.0207 C.2     
  12 N12            1.2244    -0.6561    -0.0127 N.am    
  13 O13            3.4318    -0.5360    -0.0348 O.2     
  14 O14            1.2160     3.3074     0.0078 O.2     
  15 C15            1.2722    -2.1203    -0.0215 C.3     
  16 C16            1.3035    -2.6304     1.3961 C.ar    
  17 C17            0.1204    -2.9030     2.0573 C.ar    
  18 C18            0.1474    -3.3721     3.3608 C.ar    
  19 C19            1.3671    -3.5677     4.0015 C.ar    
  20 C20            2.5493    -3.2925     3.3331 C.ar    
  21 C21            2.5154    -2.8301     2.0307 C.ar    
  22 O22            1.3988    -4.0275     5.2810 O.3     
  23 C23            2.6864    -4.2044     5.8751 C.3     
  24 O24           -1.0155    -3.6404     4.0128 O.3     
  25 C25           -2.2295    -3.4157     3.2931 C.3     
  26 H26           -1.9973     3.4513     1.0751 H       
  27 H27           -1.1755     3.7833    -0.4685 H       
  28 H28           -2.8368     3.1445    -0.4642 H       
  29 H29           -3.9851     1.4204    -0.4666 H       
  30 H30           -3.9018    -0.3576    -0.4762 H       
  31 H31           -3.6619    -0.3597     1.9918 H       
  32 H32           -3.7452     1.4183     2.0014 H       
  33 H33           -5.1601     0.4638     1.4963 H       
  34 H34            3.2078     1.8779    -0.0185 H       
  35 H35            0.3892    -2.5096    -0.5284 H       
  36 H36            2.1681    -2.4515    -0.5467 H       
  37 H37           -0.8249    -2.7501     1.5579 H       
  38 H38            3.4972    -3.4434     3.8281 H       
  39 H39            3.4375    -2.6160     1.5109 H       
  40 H40            3.2603    -4.9238     5.2910 H       
  41 H41            3.2121    -3.2497     5.8938 H       
  42 H42            2.5688    -4.5745     6.8936 H       
  43 H43           -2.2913    -2.3667     3.0035 H       
  44 H44           -2.2434    -4.0406     2.4001 H       
  45 H45           -3.0796    -3.6683     3.9268 H       
@<TRIPOS>BOND
   1    1    2 2
   2    1    9 1
   3    1    5 1
   4    2    3 1
   5    2   12 1
   6    3    4 2
   7    4    5 1
   8    4    7 1
   9    5    6 1
  10    6   26 1
  11    6   27 1
  12    6   28 1
  13    7    8 1
  14    7   29 1
  15    7   30 1
  16    8   31 1
  17    8   32 1
  18    8   33 1
  19    9   10 am
  20    9   14 2
  21   10   11 am
  22   10   34 1
  23   11   12 am
  24   11   13 2
  25   12   15 1
  26   15   16 1
  27   15   35 1
  28   15   36 1
  29   16   17 ar
  30   16   21 ar
  31   17   18 ar
  32   17   37 1
  33   18   19 ar
  34   18   24 1
  35   19   20 ar
  36   19   22 1
  37   20   21 ar
  38   20   38 1
  39   21   39 1
  40   22   23 1
  41   23   40 1
  42   23   41 1
  43   23   42 1
  44   24   25 1
  45   25   43 1
  46   25   44 1
  47   25   45 1

#	End of record

