#	Name: ASD06170022
#	Creating user name:	WinNT
#	Creation time:	15. 06. 2019 21:05

#	Modifying user name:	WinNT
#	Modification time:	15. 06. 2019 21:05

#	Program:	/corina/corina34_cracker 3.40 0067  02.08.2006

@<TRIPOS>MOLECULE
ASD06170022
  65   70    0    0    0
SMALL
NO_CHARGES


@<TRIPOS>ATOM
   1 N1             0.8966     0.6641     0.1658 N.pl3   
   2 N2             0.6266    -0.4668    -0.6097 N.am    
   3 C3             1.7904    -1.0016    -1.0294 C.2     
   4 C4             2.8672    -0.1645    -0.4913 C.2     
   5 C5             2.2469     0.8549     0.2432 C.2     
   6 C6             4.3048    -0.3561    -0.6829 C.2     
   7 O7             5.0903     0.4782    -0.2715 O.2     
   8 N8             4.7598    -1.4562    -1.3148 N.am    
   9 C9            -0.6473    -0.9642    -0.9030 C.ar    
  10 C10           -1.5879    -1.1086     0.1086 C.ar    
  11 C11           -2.8449    -1.6001    -0.1843 C.ar    
  12 C12           -3.1674    -1.9483    -1.4832 C.ar    
  13 C13           -2.2330    -1.8062    -2.4926 C.ar    
  14 C14           -0.9763    -1.3095    -2.2074 C.ar    
  15 O15            1.9226    -1.9929    -1.7238 O.2     
  16 S16            3.4221     3.9059     2.4357 S.3     
  17 C17            4.6877     3.1479     1.5763 C.2     
  18 N18            4.2420     2.1625     0.8814 N.2     
  19 C19            2.9274     1.9362     0.9666 C.2     
  20 C20            2.2795     2.8091     1.7927 C.2     
  21 C21            6.1318     3.5760     1.6257 C.3     
  22 C22            6.1306    -1.7043    -1.3834 C.ar    
  23 C23            7.0279    -0.6523    -1.2363 C.ar    
  24 C24            8.3851    -0.9095    -1.3060 C.ar    
  25 C25            8.8017    -2.2208    -1.5223 C.ar    
  26 C26            7.8501    -3.2185    -1.6597 C.ar    
  27 N27            6.5630    -2.9389    -1.5823 N.ar    
  28 O28           10.1263    -2.5183    -1.5982 O.3     
  29 N29           12.2539    -2.6961     1.9304 N.ar    
  30 C30           10.9531    -2.5230     1.9520 C.ar    
  31 C31           10.2037    -2.4572     0.7844 C.ar    
  32 C32           10.8325    -2.5773    -0.4426 C.ar    
  33 C33           12.2335    -2.7639    -0.4539 C.ar    
  34 C34           12.9403    -2.8933    -1.6584 C.ar    
  35 C35           14.2893    -3.0715    -1.6363 C.ar    
  36 C36           14.9835    -3.1276    -0.4243 C.ar    
  37 C37           14.3182    -3.0044     0.7745 C.ar    
  38 C38           12.9265    -2.8193     0.7800 C.ar    
  39 O39           16.3300    -3.3063    -0.4295 O.3     
  40 C40           16.9633    -3.4280    -1.7047 C.3     
  41 C41           -0.1143     1.5180     0.7945 C.3     
  42 H42            4.1339    -2.0754    -1.7218 H       
  43 H43           -1.3365    -0.8372     1.1233 H       
  44 H44           -3.5766    -1.7130     0.6019 H       
  45 H45           -4.1510    -2.3324    -1.7096 H       
  46 H46           -2.4879    -2.0793    -3.5059 H       
  47 H47           -0.2485    -1.1942    -2.9971 H       
  48 H48            1.2206     2.8067     2.0051 H       
  49 H49            6.2337     4.4345     2.2895 H       
  50 H50            6.7420     2.7535     1.9990 H       
  51 H51            6.4641     3.8495     0.6243 H       
  52 H52            6.6697     0.3529    -1.0700 H       
  53 H53            9.1050    -0.1120    -1.1957 H       
  54 H54            8.1657    -4.2376    -1.8276 H       
  55 H55           10.4517    -2.4284     2.9038 H       
  56 H56            9.1343    -2.3147     0.8339 H       
  57 H57           12.4151    -2.8520    -2.6012 H       
  58 H58           14.8298    -3.1711    -2.5660 H       
  59 H59           14.8637    -3.0499     1.7055 H       
  60 H60           16.5518    -4.2873    -2.2343 H       
  61 H61           16.7856    -2.5235    -2.2865 H       
  62 H62           18.0356    -3.5660    -1.5662 H       
  63 H63           -1.1079     1.1890     0.4903 H       
  64 H64           -0.0248     1.4492     1.8786 H       
  65 H65            0.0378     2.5512     0.4822 H       
@<TRIPOS>BOND
   1    1    2 1
   2    1    5 1
   3    1   41 1
   4    2    3 am
   5    2    9 1
   6    3    4 1
   7    3   15 2
   8    4    5 2
   9    4    6 1
  10    5   19 1
  11    6    7 2
  12    6    8 am
  13    8   22 1
  14    8   42 1
  15    9   10 ar
  16    9   14 ar
  17   10   11 ar
  18   10   43 1
  19   11   12 ar
  20   11   44 1
  21   12   13 ar
  22   12   45 1
  23   13   14 ar
  24   13   46 1
  25   14   47 1
  26   16   17 1
  27   16   20 1
  28   17   18 2
  29   17   21 1
  30   18   19 1
  31   19   20 2
  32   20   48 1
  33   21   49 1
  34   21   50 1
  35   21   51 1
  36   22   23 ar
  37   22   27 ar
  38   23   24 ar
  39   23   52 1
  40   24   25 ar
  41   24   53 1
  42   25   26 ar
  43   25   28 1
  44   26   27 ar
  45   26   54 1
  46   28   32 1
  47   29   30 ar
  48   29   38 ar
  49   30   31 ar
  50   30   55 1
  51   31   32 ar
  52   31   56 1
  53   32   33 ar
  54   33   34 ar
  55   33   38 ar
  56   34   35 ar
  57   34   57 1
  58   35   36 ar
  59   35   58 1
  60   36   37 ar
  61   36   39 1
  62   37   38 ar
  63   37   59 1
  64   39   40 1
  65   40   60 1
  66   40   61 1
  67   40   62 1
  68   41   63 1
  69   41   64 1
  70   41   65 1

#	End of record

