#	Name: ASD01881301
#	Creating user name:	WinNT
#	Creation time:	15. 06. 2019 19:42

#	Modifying user name:	WinNT
#	Modification time:	15. 06. 2019 19:42

#	Program:	/corina/corina34_cracker 3.40 0067  02.08.2006

@<TRIPOS>MOLECULE
ASD01881301
  61   63    0    0    0
SMALL
NO_CHARGES


@<TRIPOS>ATOM
   1 C1             0.5228    -0.6031    -1.0230 C.2     
   2 N2             0.8790    -1.8966    -0.9425 N.am    
   3 C3             2.3311    -1.9753    -0.7467 C.3     
   4 C4             2.8294    -0.5518    -0.7164 C.ar    
   5 C5             4.0747     0.0044    -0.5647 C.ar    
   6 C6             4.2231     1.3897    -0.5806 C.ar    
   7 C7             3.1091     2.2078    -0.7501 C.ar    
   8 C8             1.8591     1.6537    -0.9024 C.ar    
   9 C9             1.7054     0.2636    -0.8872 C.ar    
  10 O10           -0.6141    -0.2052    -1.1895 O.2     
  11 N11            5.4839     1.9554    -0.4266 N.pl3   
  12 C12            5.6402     3.4119    -0.4432 C.3     
  13 C13            7.5664     4.1569     0.9765 C.ar    
  14 C14            7.0939     3.7633    -0.2580 C.ar    
  15 C15            7.9805     3.6946    -1.3323 C.ar    
  16 C16            9.3161     4.0295    -1.1091 C.ar    
  17 C17            9.7081     4.4133     0.1558 C.ar    
  18 N18            8.8381     4.4658     1.1472 N.ar    
  19 N19            7.5441     3.3016    -2.5940 N.3     
  20 C20            7.7763     4.3610    -3.5849 C.3     
  21 C21            6.9341     4.0860    -4.8323 C.3     
  22 O22            5.5475     4.1962    -4.5047 O.3     
  23 C23            4.6693     3.9565    -5.6062 C.3     
  24 C24            8.1860     2.0460    -3.0056 C.3     
  25 C25            7.6605     0.8976    -2.1419 C.3     
  26 C26           -0.0325    -3.0397    -1.0351 C.3     
  27 C27           -0.1586    -3.4745    -2.4966 C.3     
  28 C28           -1.1105    -4.6683    -2.5933 C.3     
  29 C29           -1.2366    -5.1031    -4.0548 C.3     
  30 H30            2.5555    -2.4711     0.1977 H       
  31 H31            2.7919    -2.5162    -1.5732 H       
  32 H32            4.9383    -0.6306    -0.4329 H       
  33 H33            3.2268     3.2813    -0.7617 H       
  34 H34            0.9974     2.2915    -1.0333 H       
  35 H35            6.2600     1.3856    -0.3082 H       
  36 H36            5.2905     3.8040    -1.3983 H       
  37 H37            5.0548     3.8494     0.3654 H       
  38 H38            6.8861     4.2173     1.8132 H       
  39 H39           10.0331     3.9884    -1.9157 H       
  40 H40           10.7402     4.6741     0.3378 H       
  41 H41            7.4929     5.3241    -3.1602 H       
  42 H42            8.8318     4.3799    -3.8560 H       
  43 H43            7.1834     4.8119    -5.6062 H       
  44 H44            7.1425     3.0802    -5.1969 H       
  45 H45            3.6357     4.0590    -5.2757 H       
  46 H46            4.8716     4.6798    -6.3962 H       
  47 H47            4.8307     2.9480    -5.9869 H       
  48 H48            7.9573     1.8473    -4.0527 H       
  49 H49            9.2653     2.1313    -2.8793 H       
  50 H50            7.8705     1.1064    -1.0929 H       
  51 H51            6.5844     0.7988    -2.2844 H       
  52 H52            8.1524    -0.0305    -2.4331 H       
  53 H53            0.3600    -3.8663    -0.4427 H       
  54 H54           -1.0134    -2.7540    -0.6551 H       
  55 H55           -0.5510    -2.6479    -3.0890 H       
  56 H56            0.8223    -3.7602    -2.8766 H       
  57 H57           -0.7180    -5.4949    -2.0009 H       
  58 H58           -2.0914    -4.3826    -2.2133 H       
  59 H59           -1.9147    -5.9536    -4.1237 H       
  60 H60           -1.6290    -4.2765    -4.6472 H       
  61 H61           -0.2557    -5.3888    -4.4348 H       
@<TRIPOS>BOND
   1    1    2 am
   2    1    9 1
   3    1   10 2
   4    2    3 1
   5    2   26 1
   6    3    4 1
   7    3   30 1
   8    3   31 1
   9    4    5 ar
  10    4    9 ar
  11    5    6 ar
  12    5   32 1
  13    6    7 ar
  14    6   11 1
  15    7    8 ar
  16    7   33 1
  17    8    9 ar
  18    8   34 1
  19   11   12 1
  20   11   35 1
  21   12   14 1
  22   12   36 1
  23   12   37 1
  24   13   14 ar
  25   13   18 ar
  26   13   38 1
  27   14   15 ar
  28   15   16 ar
  29   15   19 1
  30   16   17 ar
  31   16   39 1
  32   17   18 ar
  33   17   40 1
  34   19   20 1
  35   19   24 1
  36   20   21 1
  37   20   41 1
  38   20   42 1
  39   21   22 1
  40   21   43 1
  41   21   44 1
  42   22   23 1
  43   23   45 1
  44   23   46 1
  45   23   47 1
  46   24   25 1
  47   24   48 1
  48   24   49 1
  49   25   50 1
  50   25   51 1
  51   25   52 1
  52   26   27 1
  53   26   53 1
  54   26   54 1
  55   27   28 1
  56   27   55 1
  57   27   56 1
  58   28   29 1
  59   28   57 1
  60   28   58 1
  61   29   59 1
  62   29   60 1
  63   29   61 1

#	End of record

