#	Name: ASD01885796
#	Creating user name:	WinNT
#	Creation time:	15. 06. 2019 19:50

#	Modifying user name:	WinNT
#	Modification time:	15. 06. 2019 19:50

#	Program:	/corina/corina34_cracker 3.40 0067  02.08.2006

@<TRIPOS>MOLECULE
ASD01885796
  58   60    0    0    0
SMALL
NO_CHARGES


@<TRIPOS>ATOM
   1 C1            -0.0160     1.3294     0.0094 C.ar    
   2 C2            -1.2520     2.0240     0.0189 C.ar    
   3 C3            -2.4596     1.2809     0.0205 C.ar    
   4 C4            -2.3700    -0.1047     0.0125 C.ar    
   5 C5            -1.1108    -0.7138     0.0033 C.ar    
   6 N6             0.0021    -0.0041     0.0020 N.ar    
   7 C7             1.1364     3.4285     0.0097 C.ar    
   8 C8            -0.0805     4.1065     0.0258 C.ar    
   9 C9            -1.2606     3.4246     0.0271 C.ar    
  10 C10           -3.7749     1.9611     0.0308 C.2     
  11 C11           -1.0240    -2.1941    -0.0047 C.2     
  12 C12            2.4227     4.2136     0.0097 C.3     
  13 N13            2.8503     4.4530     1.3945 N.3     
  14 C14            1.1821     2.0685     0.0019 C.ar    
  15 N15            0.1806    -2.7985    -0.0130 N.am    
  16 O16           -2.0389    -2.8621    -0.0037 O.2     
  17 C17            4.2124     5.0045     1.4375 C.3     
  18 C18            4.5943     5.2940     2.8916 C.3     
  19 O19            4.4717     4.0937     3.6594 O.3     
  20 C20            3.1576     3.5297     3.6402 C.3     
  21 C21            2.7611     3.2223     2.1937 C.3     
  22 C22            6.0395     5.7928     2.9506 C.3     
  23 C23           -4.1757     2.9887     0.9094 C.2     
  24 N24           -5.3995     3.3279     0.6043 N.2     
  25 N25           -5.8265     2.5392    -0.4706 N.pl3   
  26 C26           -4.8207     1.7119    -0.8135 C.2     
  27 C27            3.1442     2.2374     4.4592 C.3     
  28 F28            6.1597     6.9642     2.1953 F       
  29 F29            6.3877     6.0571     4.2796 F       
  30 F30            6.8925     4.8132     2.4310 F       
  31 H31           -3.2660    -0.7077     0.0137 H       
  32 H32           -0.0889     5.1864     0.0378 H       
  33 H33           -2.1976     3.9616     0.0341 H       
  34 H34            3.1929     3.6491    -0.5159 H       
  35 H35            2.2657     5.1683    -0.4923 H       
  36 H36            2.1338     1.5582    -0.0097 H       
  37 H37            0.9908    -2.2651    -0.0139 H       
  38 H38            0.2373    -3.7668    -0.0182 H       
  39 H39            4.9109     4.2825     1.0146 H       
  40 H40            4.2493     5.9286     0.8606 H       
  41 H41            3.9293     6.0562     3.2977 H       
  42 H42            2.4503     4.2400     4.0683 H       
  43 H43            1.7386     2.8455     2.1688 H       
  44 H44            3.4364     2.4718     1.7828 H       
  45 H45           -3.5757     3.4197     1.6972 H       
  46 H46           -6.6966     2.5832    -0.8972 H       
  47 H47           -4.8393     0.9798    -1.6073 H       
  48 H48            3.4303     2.4562     5.4879 H       
  49 H49            2.1424     1.8080     4.4441 H       
  50 H50            3.8504     1.5272     4.0289 H       
  51 C51           12.8944    13.8713    11.3931 C.3     
  52 C52           12.9151    12.3415    11.3847 C.3     
  53 H53           13.9170    14.2486    11.3854 H       
  54 H54           12.3672    14.2324    10.5101 H       
  55 H55           12.3842    14.2228    12.2899 H       
  56 H56           13.4423    11.9804    12.2678 H       
  57 H57           11.8925    11.9642    11.3925 H       
  58 H58           13.4253    11.9900    10.4879 H       
@<TRIPOS>BOND
   1    1    6 ar
   2    1   14 ar
   3    1    2 ar
   4    2    3 ar
   5    2    9 ar
   6    3   10 1
   7    3    4 ar
   8    4    5 ar
   9    4   31 1
  10    5   11 1
  11    5    6 ar
  12    7   12 1
  13    7    8 ar
  14    7   14 ar
  15    8    9 ar
  16    8   32 1
  17    9   33 1
  18   10   23 1
  19   10   26 2
  20   11   15 am
  21   11   16 2
  22   12   13 1
  23   12   34 1
  24   12   35 1
  25   13   17 1
  26   13   21 1
  27   14   36 1
  28   15   37 1
  29   15   38 1
  30   17   18 1
  31   17   39 1
  32   17   40 1
  33   18   22 1
  34   18   19 1
  35   18   41 1
  36   19   20 1
  37   20   21 1
  38   20   27 1
  39   20   42 1
  40   21   43 1
  41   21   44 1
  42   22   28 1
  43   22   29 1
  44   22   30 1
  45   23   24 2
  46   23   45 1
  47   24   25 1
  48   25   26 1
  49   25   46 1
  50   26   47 1
  51   27   48 1
  52   27   49 1
  53   27   50 1
  54   51   52 1
  55   51   53 1
  56   51   54 1
  57   51   55 1
  58   52   56 1
  59   52   57 1
  60   52   58 1

#	End of record

