#	Name: ASD04880131
#	Creating user name:	WinNT
#	Creation time:	15. 06. 2019 20:52

#	Modifying user name:	WinNT
#	Modification time:	15. 06. 2019 20:52

#	Program:	/corina/corina34_cracker 3.40 0067  02.08.2006

@<TRIPOS>MOLECULE
ASD04880131
  50   52    0    0    0
SMALL
NO_CHARGES


@<TRIPOS>ATOM
   1 C1            -0.1082     1.0374     0.0579 C.2     
   2 O2            -0.1498    -0.1776     0.0324 O.2     
   3 C3             1.1944     1.7335     0.0048 C.ar    
   4 C4             2.3162     1.1687     0.6141 C.ar    
   5 C5             3.5310     1.8247     0.5600 C.ar    
   6 C6             3.6355     3.0406    -0.0969 C.ar    
   7 C7             2.5267     3.6039    -0.7019 C.ar    
   8 C8             1.3093     2.9556    -0.6598 C.ar    
   9 C9             2.2025    -0.1529     1.3292 C.3     
  10 F10            4.6183     1.2804     1.1488 F       
  11 N11           -1.2504     1.7494     0.1290 N.am    
  12 N12           -1.3354     3.1331     0.2698 N.2     
  13 C13           -2.5415     3.5846     0.3138 C.2     
  14 C14           -3.5159     2.4345     0.1951 C.3     
  15 C15           -2.6112     1.1932     0.0642 C.3     
  16 C16           -4.3885     2.3388     1.4482 C.3     
  17 C17           -4.3844     2.5937    -1.0544 C.3     
  18 C18           -2.9139     5.0036     0.4577 C.ar    
  19 C19           -1.9207     5.9818     0.5584 C.ar    
  20 C20           -2.2755     7.3106     0.6927 C.ar    
  21 C21           -3.6208     7.6728     0.7274 C.ar    
  22 C22           -4.6066     6.7024     0.6275 C.ar    
  23 C23           -4.2604     5.3745     0.4879 C.ar    
  24 O24           -3.9676     8.9805     0.8600 O.3     
  25 C25           -5.3642     9.2815     0.8884 C.3     
  26 O26           -1.3117     8.2650     0.7914 O.3     
  27 C27            0.0464     7.8224     0.7490 C.3     
  28 H28            4.5867     3.5506    -0.1362 H       
  29 H29            2.6147     4.5518    -1.2119 H       
  30 H30            0.4458     3.3951    -1.1367 H       
  31 H31            2.3088    -0.9654     0.6104 H       
  32 H32            2.9881    -0.2280     2.0811 H       
  33 H33            1.2284    -0.2214     1.8135 H       
  34 H34           -2.7767     0.6947    -0.8909 H       
  35 H35           -2.7843     0.5056     0.8920 H       
  36 H36           -4.9679     3.2555     1.5583 H       
  37 H37           -5.0657     1.4898     1.3555 H       
  38 H38           -3.7534     2.2031     2.3237 H       
  39 H39           -3.7465     2.6370    -1.9372 H       
  40 H40           -5.0617     1.7436    -1.1369 H       
  41 H41           -4.9638     3.5139    -0.9793 H       
  42 H42           -0.8785     5.6999     0.5317 H       
  43 H43           -5.6479     6.9875     0.6552 H       
  44 H44           -5.0301     4.6214     0.4058 H       
  45 H45           -5.8267     8.9487    -0.0408 H       
  46 H46           -5.8295     8.7684     1.7300 H       
  47 H47           -5.5018    10.3573     0.9977 H       
  48 H48            0.2301     7.1341     1.5740 H       
  49 H49            0.2334     7.3139    -0.1969 H       
  50 H50            0.7114     8.6814     0.8374 H       
@<TRIPOS>BOND
   1    1    2 2
   2    1    3 1
   3    1   11 am
   4    3    4 ar
   5    3    8 ar
   6    4    5 ar
   7    4    9 1
   8    5    6 ar
   9    5   10 1
  10    6    7 ar
  11    6   28 1
  12    7    8 ar
  13    7   29 1
  14    8   30 1
  15    9   31 1
  16    9   32 1
  17    9   33 1
  18   11   12 1
  19   11   15 1
  20   12   13 2
  21   13   14 1
  22   13   18 1
  23   14   15 1
  24   14   16 1
  25   14   17 1
  26   15   34 1
  27   15   35 1
  28   16   36 1
  29   16   37 1
  30   16   38 1
  31   17   39 1
  32   17   40 1
  33   17   41 1
  34   18   19 ar
  35   18   23 ar
  36   19   20 ar
  37   19   42 1
  38   20   21 ar
  39   20   26 1
  40   21   22 ar
  41   21   24 1
  42   22   23 ar
  43   22   43 1
  44   23   44 1
  45   24   25 1
  46   25   45 1
  47   25   46 1
  48   25   47 1
  49   26   27 1
  50   27   48 1
  51   27   49 1
  52   27   50 1

#	End of record

