#	Name: ASD01410770
#	Creating user name:	WinNT
#	Creation time:	15. 06. 2019 19:18

#	Modifying user name:	WinNT
#	Modification time:	15. 06. 2019 19:18

#	Program:	/corina/corina34_cracker 3.40 0067  02.08.2006

@<TRIPOS>MOLECULE
ASD01410770
 107  113    0    0    0
SMALL
NO_CHARGES


@<TRIPOS>ATOM
   1 C1             3.1622     1.8047    -3.4760 C.3     
   2 C2             3.6023    -2.0082    -3.4814 C.3     
   3 C3             3.2395    -0.6233    -4.0631 C.3     
   4 N4             4.4302    -0.2530    -4.8464 N.am    
   5 C5             4.8974    -1.4872    -5.4972 C.3     
   6 C6             4.4009    -2.6642    -4.6338 C.3     
   7 O7             4.4168    -1.8702    -2.3154 O.3     
   8 C8             4.3199    -1.5876    -6.8856 C.2     
   9 O9             3.5863    -0.7160    -7.3017 O.2     
  10 N10            4.6186    -2.6459    -7.6648 N.am    
  11 C11            3.9780    -2.7958    -8.9738 C.3     
  12 C12            2.4900    -3.0324    -8.9460 C.2     
  13 N13            1.8576    -3.2092    -7.7690 N.am    
  14 O14            1.8615    -3.0638    -9.9827 O.2     
  15 S15            0.2078    -3.3465    -7.7278 S.o2    
  16 C16           -0.1408    -4.8850    -8.6233 C.3     
  17 C17            4.5408    -1.9724   -10.1340 C.3     
  18 C18            4.7821    -3.4830   -10.0792 C.3     
  19 C19           -1.6081    -5.2438    -8.8666 C.3     
  20 C20           -0.7347    -4.7657   -10.0282 C.3     
  21 O21           -0.0973    -3.4926    -6.3477 O.2     
  22 O22           -0.2557    -2.2240    -8.4658 O.2     
  23 C23            3.5648    -1.4606   -11.1619 C.2     
  24 C24            3.4458    -0.1724   -11.3678 C.2     
  25 C25            4.4340    -2.9137    -1.4494 C.ar    
  26 C26            5.1748    -2.8465    -0.2462 C.ar    
  27 C27            3.7297    -4.0589    -1.7139 C.ar    
  28 C28            3.7639    -5.1232    -0.8026 C.ar    
  29 N29            4.4637    -5.0523     0.3171 N.ar    
  30 C30            5.1660    -3.9591     0.6310 C.ar    
  31 C31            2.9998    -6.3529    -1.0998 C.2     
  32 C32            5.9066    -3.8960     1.8243 C.ar    
  33 C33            6.6211    -2.7571     2.1219 C.ar    
  34 C34            6.6176    -1.6636     1.2511 C.ar    
  35 C35            5.9128    -1.7016     0.0872 C.ar    
  36 Cl36           5.9198    -5.2455     2.9162 Cl      
  37 O37            7.3371    -2.6953     3.2750 O.3     
  38 N38            2.9458    -7.4108    -0.3419 N.2     
  39 C39            3.0110     0.3806    -2.9422 C.3     
  40 C40            4.6001     2.0387    -3.9400 C.3     
  41 C41            4.9988     0.9595    -4.9147 C.2     
  42 C42            4.6992     3.4041    -4.6231 C.3     
  43 C43            3.6935     3.4729    -5.7740 C.3     
  44 C44            4.3887     4.5060    -3.6080 C.3     
  45 O45            5.8359     1.1885    -5.7619 O.2     
  46 C46            8.0574    -1.4872     3.5275 C.3     
  47 C47            2.2146    -8.4128    -0.7666 C.2     
  48 C48            1.6013    -8.2303    -1.9431 C.2     
  49 S49            2.0098    -6.6201    -2.5324 S.3     
  50 C50            2.0733    -9.6904     0.0200 C.3     
  51 C51            0.8076    -9.6244     0.8770 C.3     
  52 C52            1.9754   -10.8746    -0.9438 C.3     
  53 C53            8.7971    -1.6038     4.8617 C.3     
  54 O54            7.8534    -1.8241     5.9119 O.3     
  55 O55            9.7114    -2.7006     4.8051 O.3     
  56 C56            8.4226    -1.7864     7.2221 C.3     
  57 C57           10.7928    -2.6043     5.7343 C.3     
  58 H58            2.4827     1.9504    -4.3158 H       
  59 H59            2.9166     2.5150    -2.6865 H       
  60 H60            2.7024    -2.5806    -3.2566 H       
  61 H61            2.3649    -0.6976    -4.7093 H       
  62 H62            5.9863    -1.4938    -5.5451 H       
  63 H63            5.2465    -3.2257    -4.2367 H       
  64 H64            3.7535    -3.3168    -5.2195 H       
  65 H65            5.2576    -3.3084    -7.3589 H       
  66 H66            2.3689    -3.2560    -6.9460 H       
  67 H67            0.5536    -5.7045    -8.4380 H       
  68 H68            5.3877    -1.3193    -9.9234 H       
  69 H69            5.7878    -3.8234    -9.8327 H       
  70 H70            4.2349    -4.1061   -10.7866 H       
  71 H71           -1.8789    -6.2993    -8.8418 H       
  72 H72           -2.3639    -4.5553    -8.4886 H       
  73 H73           -0.9159    -3.7626   -10.4145 H       
  74 H74           -0.4309    -5.5066   -10.7677 H       
  75 H75            2.9634    -2.1559   -11.7288 H       
  76 H76            2.7463     0.1944   -12.1044 H       
  77 H77            4.0471     0.5229   -10.8009 H       
  78 H78            3.1499    -4.1409    -2.6214 H       
  79 H79            7.1843    -0.7794     1.5030 H       
  80 H80            5.9190    -0.8498    -0.5767 H       
  81 H81            3.7413     0.2115    -2.1508 H       
  82 H82            2.0067     0.2502    -2.5391 H       
  83 H83            5.2678     2.0147    -3.0788 H       
  84 H84            5.7076     3.5430    -5.0130 H       
  85 H85            3.7641     4.4456    -6.2607 H       
  86 H86            3.9147     2.6879    -6.4972 H       
  87 H87            2.6851     3.3340    -5.3841 H       
  88 H88            5.1444     4.4998    -2.8225 H       
  89 H89            4.3936     5.4738    -4.1094 H       
  90 H90            3.4068     4.3293    -3.1689 H       
  91 H91            8.7772    -1.3192     2.7264 H       
  92 H92            7.3599    -0.6506     3.5706 H       
  93 H93            0.9632    -8.9445    -2.4423 H       
  94 H94            2.9426    -9.8179     0.6651 H       
  95 H95           -0.0617    -9.4969     0.2320 H       
  96 H96            0.7054   -10.5485     1.4460 H       
  97 H97            0.8773    -8.7808     1.5637 H       
  98 H98            2.8771   -10.9216    -1.5544 H       
  99 H99            1.8732   -11.7987    -0.3749 H       
 100 H100           1.1061   -10.7471    -1.5889 H       
 101 H101           9.3465    -0.6823     5.0543 H       
 102 H102           8.9829    -2.7040     7.4013 H       
 103 H103           9.0921    -0.9301     7.3029 H       
 104 H104           7.6267    -1.6964     7.9615 H       
 105 H105          11.4339    -1.7665     5.4602 H       
 106 H106          10.3968    -2.4458     6.7374 H       
 107 H107          11.3724    -3.5272     5.7141 H       
@<TRIPOS>BOND
   1    1   39 1
   2    1   40 1
   3    1   58 1
   4    1   59 1
   5    2    3 1
   6    2    7 1
   7    2    6 1
   8    2   60 1
   9    3    4 1
  10    3   39 1
  11    3   61 1
  12    4    5 1
  13    4   41 am
  14    5    6 1
  15    5    8 1
  16    5   62 1
  17    6   63 1
  18    6   64 1
  19    7   25 1
  20    8    9 2
  21    8   10 am
  22   10   11 1
  23   10   65 1
  24   11   12 1
  25   11   17 1
  26   11   18 1
  27   12   13 am
  28   12   14 2
  29   13   15 am
  30   13   66 1
  31   15   16 1
  32   15   21 2
  33   15   22 2
  34   16   19 1
  35   16   20 1
  36   16   67 1
  37   17   18 1
  38   17   23 1
  39   17   68 1
  40   18   69 1
  41   18   70 1
  42   19   20 1
  43   19   71 1
  44   19   72 1
  45   20   73 1
  46   20   74 1
  47   23   24 2
  48   23   75 1
  49   24   76 1
  50   24   77 1
  51   25   26 ar
  52   25   27 ar
  53   26   30 ar
  54   26   35 ar
  55   27   28 ar
  56   27   78 1
  57   28   29 ar
  58   28   31 1
  59   29   30 ar
  60   30   32 ar
  61   31   38 2
  62   31   49 1
  63   32   33 ar
  64   32   36 1
  65   33   34 ar
  66   33   37 1
  67   34   35 ar
  68   34   79 1
  69   35   80 1
  70   37   46 1
  71   38   47 1
  72   39   81 1
  73   39   82 1
  74   40   41 1
  75   40   42 1
  76   40   83 1
  77   41   45 2
  78   42   43 1
  79   42   44 1
  80   42   84 1
  81   43   85 1
  82   43   86 1
  83   43   87 1
  84   44   88 1
  85   44   89 1
  86   44   90 1
  87   46   53 1
  88   46   91 1
  89   46   92 1
  90   47   48 2
  91   47   50 1
  92   48   49 1
  93   48   93 1
  94   50   51 1
  95   50   52 1
  96   50   94 1
  97   51   95 1
  98   51   96 1
  99   51   97 1
 100   52   98 1
 101   52   99 1
 102   52  100 1
 103   53   54 1
 104   53   55 1
 105   53  101 1
 106   54   56 1
 107   55   57 1
 108   56  102 1
 109   56  103 1
 110   56  104 1
 111   57  105 1
 112   57  106 1
 113   57  107 1

#	End of record

