#	Name: ASD02038152
#	Creating user name:	WinNT
#	Creation time:	15. 06. 2019 20:16

#	Modifying user name:	WinNT
#	Modification time:	15. 06. 2019 20:16

#	Program:	/corina/corina34_cracker 3.40 0067  02.08.2006

@<TRIPOS>MOLECULE
ASD02038152
  53   55    0    0    0
SMALL
NO_CHARGES


@<TRIPOS>ATOM
   1 C1             0.5067     1.4976     0.4190 C.3     
   2 C2             0.5667    -0.0317     0.4187 C.3     
   3 N3             1.0690    -0.4994    -0.8808 N.3     
   4 C4             1.0699    -1.9669    -0.9476 C.3     
   5 C5             1.8232    -2.4199    -2.2000 C.3     
   6 O6             1.1793    -1.8905    -3.3607 O.3     
   7 C7             1.8241    -3.9483    -2.2696 C.3     
   8 O8             2.6251    -4.3743    -3.3737 O.3     
   9 C9             2.7318    -5.7144    -3.5782 C.ar    
  10 C10            3.4940    -6.1963    -4.6322 C.ar    
  11 C11            2.0830    -6.5991    -2.7293 C.ar    
  12 C12            2.1917    -7.9601    -2.9359 C.ar    
  13 C13            2.9502    -8.4430    -3.9938 C.ar    
  14 C14            3.6028    -7.5571    -4.8404 C.ar    
  15 N15            3.0613    -9.8242    -4.2037 N.am    
  16 C16            2.4090     0.0409    -1.1495 C.3     
  17 C17            2.3490     1.5702    -1.1492 C.3     
  18 N18            1.8467     2.0378     0.1502 N.3     
  19 C19            1.8458     3.4331     0.2138 C.ar    
  20 C20            1.4053     4.0772     1.3635 C.ar    
  21 C21            1.4057     5.4568     1.4246 C.ar    
  22 C22            1.8434     6.1987     0.3430 C.ar    
  23 C23            2.2833     5.5609    -0.8049 C.ar    
  24 C24            2.2905     4.1790    -0.8696 C.ar    
  25 C25            2.0112   -10.6307    -3.9519 C.2     
  26 N26            2.0860   -11.9448    -4.2420 N.am    
  27 O27            0.9964   -10.1728    -3.4631 O.2     
  28 F28            2.7104     6.2885    -1.8601 F       
  29 H29           -0.1832     1.8346    -0.3546 H       
  30 H30            0.1618     1.8478     1.3919 H       
  31 H31            1.2356    -0.3696     1.2102 H       
  32 H32           -0.4316    -0.4349     0.5891 H       
  33 H33            1.5611    -2.3706    -0.0623 H       
  34 H34            0.0428    -2.3293    -0.9904 H       
  35 H35            2.8503    -2.0575    -2.1572 H       
  36 H36            0.2599    -2.1721    -3.4632 H       
  37 H37            2.2347    -4.3539    -1.3450 H       
  38 H38            0.8032    -4.3066    -2.4018 H       
  39 H39            4.0022    -5.5071    -5.2903 H       
  40 H40            1.4931    -6.2233    -1.9063 H       
  41 H41            1.6872    -8.6488    -2.2744 H       
  42 H42            4.1929    -7.9321    -5.6636 H       
  43 H43            3.8939   -10.1997    -4.5302 H       
  44 H44            3.0989    -0.2962    -0.3759 H       
  45 H45            2.7539    -0.3093    -2.1224 H       
  46 H46            3.3473     1.9733    -1.3196 H       
  47 H47            1.6800     1.9081    -1.9407 H       
  48 H48            1.0625     3.4991     2.2089 H       
  49 H49            1.0633     5.9570     2.3185 H       
  50 H50            1.8419     7.2775     0.3934 H       
  51 H51            2.6335     3.6812    -1.7646 H       
  52 H52            2.8956   -12.3101    -4.6319 H       
  53 H53            1.3303   -12.5252    -4.0608 H       
@<TRIPOS>BOND
   1    1    2 1
   2    1   18 1
   3    1   29 1
   4    1   30 1
   5    2    3 1
   6    2   31 1
   7    2   32 1
   8    3    4 1
   9    3   16 1
  10    4    5 1
  11    4   33 1
  12    4   34 1
  13    5    6 1
  14    5    7 1
  15    5   35 1
  16    6   36 1
  17    7    8 1
  18    7   37 1
  19    7   38 1
  20    8    9 1
  21    9   10 ar
  22    9   11 ar
  23   10   14 ar
  24   10   39 1
  25   11   12 ar
  26   11   40 1
  27   12   13 ar
  28   12   41 1
  29   13   14 ar
  30   13   15 1
  31   14   42 1
  32   15   25 am
  33   15   43 1
  34   16   17 1
  35   16   44 1
  36   16   45 1
  37   17   18 1
  38   17   46 1
  39   17   47 1
  40   18   19 1
  41   19   20 ar
  42   19   24 ar
  43   20   21 ar
  44   20   48 1
  45   21   22 ar
  46   21   49 1
  47   22   23 ar
  48   22   50 1
  49   23   24 ar
  50   23   28 1
  51   24   51 1
  52   25   26 am
  53   25   27 2
  54   26   52 1
  55   26   53 1

#	End of record

