#	Name: ASD01230154
#	Creating user name:	WinNT
#	Creation time:	15. 06. 2019 19:11

#	Modifying user name:	WinNT
#	Modification time:	15. 06. 2019 19:11

#	Program:	/corina/corina34_cracker 3.40 0067  02.08.2006

@<TRIPOS>MOLECULE
ASD01230154
  30   32    0    0    0
SMALL
NO_CHARGES


@<TRIPOS>ATOM
   1 C1            -0.0170     1.4009     0.0097 C.ar    
   2 C2             0.0021    -0.0041     0.0020 C.ar    
   3 C3             1.2359    -0.6607    -0.0133 C.ar    
   4 C4             2.3898     0.1064    -0.0201 C.ar    
   5 C5             2.2903     1.4845    -0.0118 C.ar    
   6 N6             1.1147     2.0851     0.0026 N.ar    
   7 N7            -1.2302     2.0743     0.0191 N.pl3   
   8 O8            -2.2881    -0.5877     0.8581 O.3     
   9 C9            -1.2578    -0.7725     0.0104 C.2     
  10 C10           -1.5772    -1.7894    -0.8387 C.2     
  11 C11           -2.8601    -2.2334    -0.4811 C.2     
  12 C12           -3.2665    -1.4683     0.5699 C.2     
  13 C13           -4.5594    -1.5840     1.2737 C.ar    
  14 C14           -4.8554    -0.7339     2.3415 C.ar    
  15 C15           -6.0651    -0.8476     2.9945 C.ar    
  16 C16           -6.9841    -1.8015     2.5942 C.ar    
  17 C17           -6.6972    -2.6474     1.5373 C.ar    
  18 C18           -5.4942    -2.5404     0.8710 C.ar    
  19 H19            1.2886    -1.7394    -0.0192 H       
  20 H20            3.3594    -0.3692    -0.0316 H       
  21 H21            3.1905     2.0812    -0.0168 H       
  22 H22           -2.0620     1.5752     0.0203 H       
  23 H23           -1.2466     3.0442     0.0245 H       
  24 H24           -0.9610    -2.1792    -1.6353 H       
  25 H25           -3.4183    -3.0303    -0.9498 H       
  26 H26           -4.1388     0.0106     2.6555 H       
  27 H27           -6.2953    -0.1908     3.8204 H       
  28 H28           -7.9296    -1.8864     3.1092 H       
  29 H29           -7.4188    -3.3901     1.2306 H       
  30 H30           -5.2737    -3.1978     0.0430 H       
@<TRIPOS>BOND
   1    1    2 ar
   2    1    6 ar
   3    1    7 1
   4    2    3 ar
   5    2    9 1
   6    3    4 ar
   7    3   19 1
   8    4    5 ar
   9    4   20 1
  10    5    6 ar
  11    5   21 1
  12    7   22 1
  13    7   23 1
  14    8    9 1
  15    8   12 1
  16    9   10 2
  17   10   11 1
  18   10   24 1
  19   11   12 2
  20   11   25 1
  21   12   13 1
  22   13   14 ar
  23   13   18 ar
  24   14   15 ar
  25   14   26 1
  26   15   16 ar
  27   15   27 1
  28   16   17 ar
  29   16   28 1
  30   17   18 ar
  31   17   29 1
  32   18   30 1

#	End of record

