#	Name: ASD01880757
#	Creating user name:	WinNT
#	Creation time:	15. 06. 2019 19:41

#	Modifying user name:	WinNT
#	Modification time:	15. 06. 2019 19:41

#	Program:	/corina/corina34_cracker 3.40 0067  02.08.2006

@<TRIPOS>MOLECULE
ASD01880757
  53   56    0    0    0
SMALL
NO_CHARGES


@<TRIPOS>ATOM
   1 N1            -0.0140     1.3123    -0.0043 N.ar    
   2 C2             0.0050    -0.0048    -0.0251 C.ar    
   3 N3             1.1345    -0.6835    -0.0539 N.ar    
   4 C4             2.3048    -0.0614    -0.0636 C.ar    
   5 C5             2.3342     1.3195    -0.0430 C.ar    
   6 C6             1.1198     2.0077    -0.0122 C.ar    
   7 C7             3.6441     2.0644    -0.0525 C.3     
   8 O8             4.7239     1.1289    -0.0840 O.3     
   9 C9             5.9813     1.6395    -0.0963 C.ar    
  10 C10            7.0785     0.7842    -0.1268 C.ar    
  11 C11            8.3498     1.3019    -0.1397 C.ar    
  12 C12            8.5505     2.6862    -0.1222 C.ar    
  13 C13            7.4450     3.5408    -0.0920 C.ar    
  14 C14            6.1717     3.0161    -0.0841 C.ar    
  15 C15            9.7206     0.6734    -0.1713 C.3     
  16 N16           10.6804     1.7833    -0.1702 N.am    
  17 C17           10.0011     2.9427    -0.1419 C.2     
  18 O18           10.5112     4.0463    -0.1340 O.2     
  19 C19           -1.3011    -0.7565    -0.0153 C.3     
  20 C20            7.6460     5.0342    -0.0723 C.3     
  21 N21            1.0960     3.3938     0.0089 N.pl3   
  22 C22           -0.1222     4.0734    -0.0813 C.ar    
  23 C23           -0.3051     5.2680     0.6034 C.ar    
  24 C24           -1.5099     5.9369     0.5121 C.ar    
  25 C25           -2.5337     5.4184    -0.2595 C.ar    
  26 C26           -2.3549     4.2293    -0.9424 C.ar    
  27 C27           -1.1504     3.5585    -0.8604 C.ar    
  28 C28           12.6239     1.6244    -1.6463 C.3     
  29 C29           12.1391     1.6497    -0.1954 C.3     
  30 H30            3.2244    -0.6273    -0.0869 H       
  31 H31            3.6919     2.7042    -0.9337 H       
  32 H32            3.7203     2.6771     0.8458 H       
  33 H33            6.9301    -0.2854    -0.1401 H       
  34 H34            5.3179     3.6770    -0.0611 H       
  35 H35            9.8675     0.0502     0.7109 H       
  36 H36            9.8386     0.0769    -1.0759 H       
  37 H37           -1.6330    -0.9217    -1.0403 H       
  38 H38           -1.1639    -1.7170     0.4815 H       
  39 H39           -2.0512    -0.1744     0.5202 H       
  40 H40            7.6784     5.4099    -1.0950 H       
  41 H41            6.8205     5.5049     0.4617 H       
  42 H42            8.5843     5.2679     0.4306 H       
  43 H43            1.9248     3.8919     0.0863 H       
  44 H44            0.4938     5.6732     1.2068 H       
  45 H45           -1.6528     6.8658     1.0443 H       
  46 H46           -3.4751     5.9431    -0.3286 H       
  47 H47           -3.1565     3.8269    -1.5439 H       
  48 H48           -1.0114     2.6299    -1.3941 H       
  49 H49           12.1726     0.7789    -2.1655 H       
  50 H50           12.3354     2.5513    -2.1421 H       
  51 H51           13.7092     1.5250    -1.6651 H       
  52 H52           12.5904     2.4952     0.3238 H       
  53 H53           12.4277     0.7228     0.3003 H       
@<TRIPOS>BOND
   1    1    2 ar
   2    1    6 ar
   3    2    3 ar
   4    2   19 1
   5    3    4 ar
   6    4    5 ar
   7    4   30 1
   8    5    6 ar
   9    5    7 1
  10    6   21 1
  11    7    8 1
  12    7   31 1
  13    7   32 1
  14    8    9 1
  15    9   10 ar
  16    9   14 ar
  17   10   11 ar
  18   10   33 1
  19   11   12 ar
  20   11   15 1
  21   12   13 ar
  22   12   17 1
  23   13   14 ar
  24   13   20 1
  25   14   34 1
  26   15   16 1
  27   15   35 1
  28   15   36 1
  29   16   17 am
  30   16   29 1
  31   17   18 2
  32   19   37 1
  33   19   38 1
  34   19   39 1
  35   20   40 1
  36   20   41 1
  37   20   42 1
  38   21   22 1
  39   21   43 1
  40   22   23 ar
  41   22   27 ar
  42   23   24 ar
  43   23   44 1
  44   24   25 ar
  45   24   45 1
  46   25   26 ar
  47   25   46 1
  48   26   27 ar
  49   26   47 1
  50   27   48 1
  51   28   29 1
  52   28   49 1
  53   28   50 1
  54   28   51 1
  55   29   52 1
  56   29   53 1

#	End of record

