#	Name: ASD03090806
#	Creating user name:	WinNT
#	Creation time:	15. 06. 2019 20:29

#	Modifying user name:	WinNT
#	Modification time:	15. 06. 2019 20:29

#	Program:	/corina/corina34_cracker 3.40 0067  02.08.2006

@<TRIPOS>MOLECULE
ASD03090806
  52   54    0    0    0
SMALL
NO_CHARGES


@<TRIPOS>ATOM
   1 N1             0.0446     1.5967     0.0701 N.pl3   
   2 N2            -0.0139     0.1957    -0.0057 N.2     
   3 C3             1.3414     1.9130     0.2825 C.2     
   4 N4             2.0299     0.7905     0.3336 N.2     
   5 C5             1.2114    -0.2479     0.1595 C.2     
   6 C6            -1.0766     2.5305    -0.0613 C.3     
   7 C7            -1.7402     2.7258     1.3034 C.3     
   8 C8            -2.8302     3.7938     1.1922 C.3     
   9 O9            -2.3231     1.4930     1.7305 O.3     
  10 C10           -3.4084     4.0787     2.5798 C.3     
  11 N11            1.5951    -1.5904     0.1537 N.pl3   
  12 C12            2.9441    -1.9320     0.2805 C.ar    
  13 C13            3.8023    -1.1185     1.0107 C.ar    
  14 C14            3.4276    -3.0874    -0.3179 C.ar    
  15 C15            4.7663    -3.4230    -0.1894 C.ar    
  16 C16            5.6197    -2.6041     0.5366 C.ar    
  17 C17            5.1356    -1.4565     1.1359 C.ar    
  18 C18            1.8913     3.2791     0.4307 C.ar    
  19 C19            1.0615     4.3559     0.7579 C.ar    
  20 C20            1.6170     5.6146     0.8862 C.ar    
  21 N21            2.9102     5.8057     0.7038 N.ar    
  22 C22            3.7269     4.8167     0.3942 C.ar    
  23 C23            3.2571     3.5276     0.2528 C.ar    
  24 Cl24           0.6007     6.9622     1.2920 Cl      
  25 C25            5.1944     5.0983     0.1986 C.3     
  26 O26            5.2428    -4.5537    -0.7736 O.3     
  27 C27            6.0654    -0.5697     1.9233 C.3     
  28 C28            4.3081    -5.3494    -1.5051 C.3     
  29 H29           -0.7098     3.4893    -0.4276 H       
  30 H30           -1.8048     2.1272    -0.7650 H       
  31 H31           -0.9919     3.0446     2.0290 H       
  32 H32           -2.4021     4.7085     0.7822 H       
  33 H33           -3.6228     3.4369     0.5346 H       
  34 H34           -2.9994     1.1491     1.1309 H       
  35 H35           -3.8365     3.1640     2.9899 H       
  36 H36           -2.6158     4.4356     3.2375 H       
  37 H37           -4.1849     4.8395     2.5006 H       
  38 H38            0.9252    -2.2859     0.0617 H       
  39 H39            3.4265    -0.2215     1.4802 H       
  40 H40            2.7620    -3.7237    -0.8822 H       
  41 H41            6.6627    -2.8658     0.6366 H       
  42 H42            0.0025     4.2062     0.9076 H       
  43 H43            3.9318     2.7233    -0.0004 H       
  44 H44            5.7149     4.9912     1.1503 H       
  45 H45            5.6068     4.3927    -0.5225 H       
  46 H46            5.3228     6.1148    -0.1733 H       
  47 H47            6.5015     0.1784     1.2613 H       
  48 H48            5.5077    -0.0719     2.7166 H       
  49 H49            6.8595    -1.1742     2.3616 H       
  50 H50            3.5106    -5.6779    -0.8385 H       
  51 H51            3.8832    -4.7576    -2.3158 H       
  52 H52            4.8173    -6.2198    -1.9189 H       
@<TRIPOS>BOND
   1    1    2 1
   2    1    3 1
   3    1    6 1
   4    2    5 2
   5    3    4 2
   6    3   18 1
   7    4    5 1
   8    5   11 1
   9    6    7 1
  10    6   29 1
  11    6   30 1
  12    7    8 1
  13    7    9 1
  14    7   31 1
  15    8   10 1
  16    8   32 1
  17    8   33 1
  18    9   34 1
  19   10   35 1
  20   10   36 1
  21   10   37 1
  22   11   12 1
  23   11   38 1
  24   12   13 ar
  25   12   14 ar
  26   13   17 ar
  27   13   39 1
  28   14   15 ar
  29   14   40 1
  30   15   16 ar
  31   15   26 1
  32   16   17 ar
  33   16   41 1
  34   17   27 1
  35   18   19 ar
  36   18   23 ar
  37   19   20 ar
  38   19   42 1
  39   20   21 ar
  40   20   24 1
  41   21   22 ar
  42   22   23 ar
  43   22   25 1
  44   23   43 1
  45   25   44 1
  46   25   45 1
  47   25   46 1
  48   26   28 1
  49   27   47 1
  50   27   48 1
  51   27   49 1
  52   28   50 1
  53   28   51 1
  54   28   52 1

#	End of record

