#	Name: ASD01914322
#	Creating user name:	WinNT
#	Creation time:	15. 06. 2019 20:03

#	Modifying user name:	WinNT
#	Modification time:	15. 06. 2019 20:03

#	Program:	/corina/corina34_cracker 3.40 0067  02.08.2006

@<TRIPOS>MOLECULE
ASD01914322
  42   45    0    0    0
SMALL
NO_CHARGES


@<TRIPOS>ATOM
   1 C1             0.0473     1.2106    -0.2737 C.2     
   2 N2             0.0060    -0.1418    -0.2606 N.pl3   
   3 C3            -1.2165    -0.9428    -0.1521 C.3     
   4 C4            -2.3453    -0.0687     0.4052 C.3     
   5 N5            -2.3524     1.2215    -0.3009 N.am    
   6 C6            -1.1720     2.0946    -0.1591 C.3     
   7 C7            -2.9114     4.0550    -0.9739 C.ar    
   8 C8            -3.4473     2.9510    -1.6491 C.ar    
   9 C9            -3.4057     1.5949    -1.0543 C.2     
  10 C10           -2.9879     5.2917    -1.5939 C.ar    
  11 N11           -3.5519     5.3996    -2.7812 N.ar    
  12 N12           -4.0445     4.3926    -3.4048 N.ar    
  13 C13           -4.0230     3.1729    -2.9032 C.ar    
  14 C14            1.3339     1.5878    -0.3970 C.2     
  15 C15            2.1154     0.4269    -0.4566 C.2     
  16 N16            1.3181    -0.6093    -0.3726 N.2     
  17 C17            3.6154     0.3782    -0.5937 C.3     
  18 O18            4.1316     1.7093    -0.6550 O.3     
  19 C19            5.4781     1.8437    -0.7800 C.ar    
  20 C20            6.0466     3.1068    -0.8454 C.ar    
  21 C21            7.4181     3.2407    -0.9722 C.ar    
  22 C22            8.2211     2.1142    -1.0341 C.ar    
  23 C23            6.2865     0.7171    -0.8366 C.ar    
  24 O24           -4.3213     0.8192    -1.2455 O.2     
  25 C25            7.6545     0.8548    -0.9690 C.ar    
  26 F26            7.9736     4.4705    -1.0361 F       
  27 H27           -1.4968    -1.3145    -1.1377 H       
  28 H28           -1.0422    -1.7839     0.5189 H       
  29 H29           -3.3015    -0.5704     0.2565 H       
  30 H30           -2.1834     0.0998     1.4699 H       
  31 H31           -1.1864     2.5841     0.8147 H       
  32 H32           -1.1651     2.8423    -0.9522 H       
  33 H33           -2.4575     3.9466     0.0001 H       
  34 H34           -2.5863     6.1669    -1.1050 H       
  35 H35           -4.4485     2.3501    -3.4585 H       
  36 H36            1.6981     2.6035    -0.4423 H       
  37 H37            4.0423    -0.1379     0.2662 H       
  38 H38            3.8796    -0.1564    -1.5062 H       
  39 H39            5.4197     3.9849    -0.7978 H       
  40 H40            9.2913     2.2196    -1.1338 H       
  41 H41            5.8456    -0.2672    -0.7814 H       
  42 H42            8.2827    -0.0223    -1.0174 H       
@<TRIPOS>BOND
   1    1    2 1
   2    1   14 2
   3    1    6 1
   4    2    3 1
   5    2   16 1
   6    3    4 1
   7    3   27 1
   8    3   28 1
   9    4    5 1
  10    4   29 1
  11    4   30 1
  12    5    6 1
  13    5    9 am
  14    6   31 1
  15    6   32 1
  16    7    8 ar
  17    7   10 ar
  18    7   33 1
  19    8    9 1
  20    8   13 ar
  21    9   24 2
  22   10   11 ar
  23   10   34 1
  24   11   12 ar
  25   12   13 ar
  26   13   35 1
  27   14   15 1
  28   14   36 1
  29   15   16 2
  30   15   17 1
  31   17   18 1
  32   17   37 1
  33   17   38 1
  34   18   19 1
  35   19   20 ar
  36   19   23 ar
  37   20   21 ar
  38   20   39 1
  39   21   22 ar
  40   21   26 1
  41   22   25 ar
  42   22   40 1
  43   23   25 ar
  44   23   41 1
  45   25   42 1

#	End of record

