#	Name: ASD01917133
#	Creating user name:	WinNT
#	Creation time:	15. 06. 2019 20:08

#	Modifying user name:	WinNT
#	Modification time:	15. 06. 2019 20:08

#	Program:	/corina/corina34_cracker 3.40 0067  02.08.2006

@<TRIPOS>MOLECULE
ASD01917133
  45   48    0    0    0
SMALL
NO_CHARGES


@<TRIPOS>ATOM
   1 C1             0.3448     1.0706    -0.0169 C.2     
   2 C2             0.1168    -0.4190    -0.0301 C.3     
   3 N3             1.6003     1.5604    -0.0386 N.am    
   4 C4             1.8452     3.0106    -0.0262 C.3     
   5 C5             2.8491     3.3252     1.0879 C.3     
   6 N6             4.0477     2.4944     0.9116 N.3     
   7 C7             3.7296     1.0660     1.0407 C.3     
   8 C8             2.7619     0.6587    -0.0693 C.3     
   9 C9             5.0421     2.8634     1.8008 C.ar    
  10 N10            6.1985     2.2169     1.7824 N.ar    
  11 C11            7.1696     2.5445     2.6186 C.ar    
  12 C12            6.9657     3.5771     3.5205 C.ar    
  13 C13            5.7442     4.2321     3.5126 C.ar    
  14 N14            4.8171     3.8582     2.6464 N.ar    
  15 N15           -1.3221    -0.6930    -0.0017 N.pl3   
  16 N16           -2.1798    -0.8083    -1.1076 N.2     
  17 C17           -3.3764    -1.0557    -0.6392 C.2     
  18 N18           -3.3245    -1.1031     0.6895 N.2     
  19 C19           -2.0887    -0.8914     1.0947 C.2     
  20 C20           -1.6231    -0.8714     2.4992 C.ar    
  21 C21           -2.3821    -1.4826     3.4974 C.ar    
  22 C22           -1.9427    -1.4606     4.8051 C.ar    
  23 C23           -0.7523    -0.8337     5.1274 C.ar    
  24 C24            0.0049    -0.2257     4.1420 C.ar    
  25 C25           -0.4206    -0.2463     2.8297 C.ar    
  26 Br26          -4.9322    -1.3055    -1.6845 Br      
  27 O27           -0.6015     1.8287     0.0083 O.2     
  28 H28            0.5499    -0.8448    -0.9352 H       
  29 H29            0.5893    -0.8667     0.8442 H       
  30 H30            2.2555     3.3209    -0.9872 H       
  31 H31            0.9104     3.5382     0.1635 H       
  32 H32            3.1264     4.3783     1.0409 H       
  33 H33            2.3970     3.1106     2.0562 H       
  34 H34            4.6455     0.4807     0.9594 H       
  35 H35            3.2652     0.8829     2.0096 H       
  36 H36            2.4329    -0.3678     0.0920 H       
  37 H37            3.2620     0.7386    -1.0344 H       
  38 H38            8.1099     2.0136     2.5992 H       
  39 H39            7.7415     3.8647     4.2145 H       
  40 H40            5.5532     5.0406     4.2027 H       
  41 H41           -3.3120    -1.9718     3.2472 H       
  42 H42           -2.5294    -1.9334     5.5788 H       
  43 H43           -0.4129    -0.8185     6.1526 H       
  44 H44            0.9332     0.2624     4.3999 H       
  45 H45            0.1737     0.2245     2.0606 H       
@<TRIPOS>BOND
   1    1    2 1
   2    1    3 am
   3    1   27 2
   4    2   15 1
   5    2   28 1
   6    2   29 1
   7    3    4 1
   8    3    8 1
   9    4    5 1
  10    4   30 1
  11    4   31 1
  12    5    6 1
  13    5   32 1
  14    5   33 1
  15    6    7 1
  16    6    9 1
  17    7    8 1
  18    7   34 1
  19    7   35 1
  20    8   36 1
  21    8   37 1
  22    9   10 ar
  23    9   14 ar
  24   10   11 ar
  25   11   12 ar
  26   11   38 1
  27   12   13 ar
  28   12   39 1
  29   13   14 ar
  30   13   40 1
  31   15   16 1
  32   15   19 1
  33   16   17 2
  34   17   18 1
  35   17   26 1
  36   18   19 2
  37   19   20 1
  38   20   21 ar
  39   20   25 ar
  40   21   22 ar
  41   21   41 1
  42   22   23 ar
  43   22   42 1
  44   23   24 ar
  45   23   43 1
  46   24   25 ar
  47   24   44 1
  48   25   45 1

#	End of record

