#	Name: ASD01840247
#	Creating user name:	WinNT
#	Creation time:	15. 06. 2019 19:37

#	Modifying user name:	WinNT
#	Modification time:	15. 06. 2019 19:37

#	Program:	/corina/corina34_cracker 3.40 0067  02.08.2006

@<TRIPOS>MOLECULE
ASD01840247
  46   49    0    0    0
SMALL
NO_CHARGES


@<TRIPOS>ATOM
   1 C1             0.1051    -5.5897    -2.6965 C.3     
   2 O2            -0.4591    -6.7816    -2.1462 O.3     
   3 C3            -1.7720    -6.7389    -1.7976 C.ar    
   4 C4            -2.5036    -5.5754    -1.9867 C.ar    
   5 C5            -3.8380    -5.5347    -1.6319 C.ar    
   6 C6            -4.4445    -6.6520    -1.0883 C.ar    
   7 C7            -3.7175    -7.8126    -0.8984 C.ar    
   8 C8            -2.3843    -7.8604    -1.2573 C.ar    
   9 C9            -5.9003    -6.6046    -0.7018 C.3     
  10 H10           -6.5067    -5.8775    -1.2419 H       
  11 C11           -6.5677    -7.9213    -0.2994 C.3     
  12 C12           -6.2509    -6.8670     0.7642 C.3     
  13 H13           -5.4286    -7.0739     1.4491 H       
  14 N14           -7.3762    -6.1222     1.3344 N.am    
  15 C15           -7.4361    -5.9044     2.6631 C.2     
  16 O16           -6.5550    -6.3266     3.3895 O.2     
  17 C17           -8.5593    -5.1610     3.2322 C.2     
  18 S18           -9.8916    -4.5088     2.2986 S.3     
  19 C19          -10.6708    -3.8461     3.7283 C.ar    
  20 N20          -11.8072    -3.1578     3.8594 N.ar    
  21 N21          -12.2313    -2.7461     4.9956 N.ar    
  22 C22          -11.5792    -2.9698     6.1236 C.ar    
  23 C23          -12.1355    -2.4570     7.4270 C.3     
  24 C24          -10.3931    -3.6704     6.1118 C.ar    
  25 C25           -9.6360    -3.9355     7.3875 C.3     
  26 C26           -9.9075    -4.1337     4.8677 C.ar    
  27 C27           -8.7100    -4.8905     4.5525 C.2     
  28 N28           -7.7982    -5.2986     5.5165 N.pl3   
  29 H29            1.1560    -5.7596    -2.9306 H       
  30 H30           -0.4310    -5.3205    -3.6066 H       
  31 H31            0.0207    -4.7796    -1.9720 H       
  32 H32           -2.0301    -4.7022    -2.4106 H       
  33 H33           -4.4080    -4.6292    -1.7789 H       
  34 H34           -4.1934    -8.6840    -0.4733 H       
  35 H35           -1.8179    -8.7686    -1.1128 H       
  36 H36           -7.6132    -8.0603    -0.5745 H       
  37 H37           -5.9537    -8.8218    -0.3143 H       
  38 H38           -8.0782    -5.7858     0.7557 H       
  39 H39          -12.7872    -3.2124     7.8661 H       
  40 H40          -11.3157    -2.2416     8.1122 H       
  41 H41          -12.7060    -1.5462     7.2452 H       
  42 H42           -9.8925    -4.9260     7.7631 H       
  43 H43           -8.5649    -3.8875     7.1910 H       
  44 H44           -9.9029    -3.1846     8.1311 H       
  45 H45           -6.8931    -5.5342     5.2592 H       
  46 H46           -8.0661    -5.3481     6.4475 H       
@<TRIPOS>BOND
   1    1    2 1
   2    1   29 1
   3    1   30 1
   4    1   31 1
   5    2    3 1
   6    3    8 ar
   7    3    4 ar
   8    4    5 ar
   9    4   32 1
  10    5    6 ar
  11    5   33 1
  12    6    7 ar
  13    6    9 1
  14    7    8 ar
  15    7   34 1
  16    8   35 1
  17    9   10 1
  18    9   12 1
  19    9   11 1
  20   11   12 1
  21   11   36 1
  22   11   37 1
  23   12   13 1
  24   12   14 1
  25   14   15 am
  26   14   38 1
  27   15   16 2
  28   15   17 1
  29   17   27 2
  30   17   18 1
  31   18   19 1
  32   19   26 ar
  33   19   20 ar
  34   20   21 ar
  35   21   22 ar
  36   22   23 1
  37   22   24 ar
  38   23   39 1
  39   23   40 1
  40   23   41 1
  41   24   25 1
  42   24   26 ar
  43   25   42 1
  44   25   43 1
  45   25   44 1
  46   26   27 1
  47   27   28 1
  48   28   45 1
  49   28   46 1

#	End of record

