#	Name: ASD01948294
#	Creating user name:	WinNT
#	Creation time:	15. 06. 2019 20:14

#	Modifying user name:	WinNT
#	Modification time:	15. 06. 2019 20:14

#	Program:	/corina/corina34_cracker 3.40 0067  02.08.2006

@<TRIPOS>MOLECULE
ASD01948294
  59   61    0    0    0
SMALL
NO_CHARGES


@<TRIPOS>ATOM
   1 C1             1.7925     3.2420    -1.8612 C.ar    
   2 C2             2.3794     3.1811    -3.1129 C.ar    
   3 C3             3.6113     2.5737    -3.2737 C.ar    
   4 C4             4.2611     2.0252    -2.1845 C.ar    
   5 C5             3.6767     2.0842    -0.9268 C.ar    
   6 C6             2.4372     2.6958    -0.7672 C.ar    
   7 N7             5.5125    -0.5028    -0.1541 N.am    
   8 C8             5.5210     0.8514     0.0050 C.2     
   9 N9             4.3322     1.5293     0.1776 N.pl3   
  10 C10            6.6604    -1.1846    -0.3239 C.2     
  11 C11            7.8863    -0.5138    -0.3397 C.2     
  12 C12            7.9160     0.8573    -0.1803 C.2     
  13 C13            6.7155     1.5490    -0.0052 C.2     
  14 N14            6.7209     2.9466     0.1593 N.am    
  15 I15            1.3990     4.0102    -4.7683 I       
  16 F16            1.8649     2.7559     0.4551 F       
  17 C17            4.2383    -1.2254    -0.1339 C.3     
  18 S18            8.1505     3.7808     0.1081 S.o2    
  19 O19            7.8206     5.0721     0.6011 O.2     
  20 O20            9.0687     2.9453     0.7995 O.2     
  21 C21            8.5657     3.8598    -1.6560 C.3     
  22 C22            9.1685    -1.2827    -0.5292 C.3     
  23 C23            9.9456     4.4679    -1.9149 C.3     
  24 C24            9.9428     5.9380    -1.4909 C.3     
  25 O25           11.1963     6.5340    -1.8306 O.3     
  26 O26           10.2741    -0.3776    -0.5082 O.3     
  27 C27           11.5448    -1.0083    -0.6806 C.3     
  28 O28            6.6305    -2.3981    -0.4647 O.2     
  29 C29           12.6490     0.0502    -0.6414 C.3     
  30 C30            8.3241     2.5389    -2.4054 C.3     
  31 C31            7.7877     3.3887    -3.5695 C.3     
  32 C32            7.4517     4.4680    -2.5243 C.3     
  33 H33            0.8322     3.7206    -1.7382 H       
  34 H34            4.0662     2.5277    -4.2521 H       
  35 H35            5.2229     1.5506    -2.3118 H       
  36 H36            3.9507     1.6213     1.0646 H       
  37 H37            8.8563     1.3884    -0.1901 H       
  38 H38            5.8872     3.4213     0.3026 H       
  39 H39            3.7956    -1.2092    -1.1298 H       
  40 H40            4.4108    -2.2578     0.1703 H       
  41 H41            3.5604    -0.7468     0.5728 H       
  42 H42            9.2786    -2.0096     0.2755 H       
  43 H43            9.1424    -1.8023    -1.4870 H       
  44 H44           10.6956     3.9252    -1.3396 H       
  45 H45           10.1806     4.3965    -2.9769 H       
  46 H46            9.1390     6.4634    -2.0065 H       
  47 H47            9.7886     6.0052    -0.4139 H       
  48 H48           11.2657     7.4681    -1.5902 H       
  49 H49           11.7043    -1.7294     0.1210 H       
  50 H50           11.5680    -1.5221    -1.6415 H       
  51 H51           12.4895     0.7713    -1.4430 H       
  52 H52           12.6257     0.5640     0.3196 H       
  53 H53           13.6182    -0.4309    -0.7729 H       
  54 H54            9.2401     1.9989    -2.6449 H       
  55 H55            7.5673     1.9060    -1.9419 H       
  56 H56            8.5575     3.6938    -4.2783 H       
  57 H57            6.9102     2.9608    -4.0543 H       
  58 H58            6.4562     4.3631    -2.0928 H       
  59 H59            7.6633     5.4828    -2.8611 H       
@<TRIPOS>BOND
   1    1    2 ar
   2    1    6 ar
   3    1   33 1
   4    2    3 ar
   5    2   15 1
   6    3    4 ar
   7    3   34 1
   8    4    5 ar
   9    4   35 1
  10    5    6 ar
  11    5    9 1
  12    6   16 1
  13    7    8 1
  14    7   10 am
  15    7   17 1
  16    8    9 1
  17    8   13 2
  18    9   36 1
  19   10   11 1
  20   10   28 2
  21   11   12 2
  22   11   22 1
  23   12   13 1
  24   12   37 1
  25   13   14 1
  26   14   18 am
  27   14   38 1
  28   17   39 1
  29   17   40 1
  30   17   41 1
  31   18   19 2
  32   18   20 2
  33   18   21 1
  34   21   23 1
  35   21   30 1
  36   21   32 1
  37   22   26 1
  38   22   42 1
  39   22   43 1
  40   23   24 1
  41   23   44 1
  42   23   45 1
  43   24   25 1
  44   24   46 1
  45   24   47 1
  46   25   48 1
  47   26   27 1
  48   27   29 1
  49   27   49 1
  50   27   50 1
  51   29   51 1
  52   29   52 1
  53   29   53 1
  54   30   31 1
  55   30   54 1
  56   30   55 1
  57   31   32 1
  58   31   56 1
  59   31   57 1
  60   32   58 1
  61   32   59 1

#	End of record

