#	Name: ASD06660136
#	Creating user name:	WinNT
#	Creation time:	15. 06. 2019 21:08

#	Modifying user name:	WinNT
#	Modification time:	15. 06. 2019 21:08

#	Program:	/corina/corina34_cracker 3.40 0067  02.08.2006

@<TRIPOS>MOLECULE
ASD06660136
  78   81    0    0    0
SMALL
NO_CHARGES


@<TRIPOS>ATOM
   1 C1             0.0328     1.6468     0.9566 C.2     
   2 C2            -0.0051     0.2521     0.3871 C.3     
   3 C3            -1.0768     0.1749    -0.7021 C.3     
   4 O4             1.0470     2.3000     0.8881 O.2     
   5 O5            -1.0617     2.1655     1.5350 O.3     
   6 C6            -1.2064    -1.2487    -1.1793 C.ar    
   7 C7            -2.0727    -2.1151    -0.5381 C.ar    
   8 C8            -2.1938    -3.4203    -0.9728 C.ar    
   9 C9            -1.4443    -3.8625    -2.0556 C.ar    
  10 C10           -0.5750    -2.9895    -2.6974 C.ar    
  11 C11           -0.4629    -1.6840    -2.2610 C.ar    
  12 N12           -1.5640    -5.1820    -2.4976 N.3     
  13 C13           -0.6863    -5.4334    -3.6477 C.3     
  14 C14           -0.9493    -6.8384    -4.1944 C.3     
  15 C15           -0.6846    -7.8676    -3.0919 C.3     
  16 C16           -1.5765    -7.5543    -1.8874 C.3     
  17 C17           -1.2952    -6.1286    -1.4076 C.3     
  18 C18           -1.0044    -9.2698    -3.6140 C.3     
  19 N19           -0.6385   -10.2631    -2.6013 N.pl3   
  20 C20           -0.8380   -11.6159    -2.8507 C.ar    
  21 C21           -1.3857   -12.0198    -4.0643 C.ar    
  22 C22           -1.5787   -13.3690    -4.2992 C.ar    
  23 C23           -1.2163   -14.2727    -3.3089 C.ar    
  24 C24           -0.6783   -13.8021    -2.1282 C.ar    
  25 N25           -0.5003   -12.5090    -1.9335 N.ar    
  26 N26            1.3013    -0.0757    -0.1892 N.am    
  27 C27            2.3259    -0.4199     0.6159 C.2     
  28 C28            3.6691    -0.6626     0.0422 C.ar    
  29 C29            4.0807    -1.9656    -0.2426 C.ar    
  30 C30            5.3303    -2.1928    -0.7759 C.ar    
  31 C31            6.1864    -1.1174    -1.0325 C.ar    
  32 C32            5.7728     0.1870    -0.7473 C.ar    
  33 C33            4.5203     0.4120    -0.2187 C.ar    
  34 O34            2.1473    -0.5310     1.8128 O.2     
  35 C35            7.5239    -1.3591    -1.6027 C.2     
  36 O36            7.8821    -2.4906    -1.8495 O.2     
  37 C37            8.4460    -0.1996    -1.8790 C.3     
  38 F38            9.6474    -0.6765    -2.4141 F       
  39 F39            7.8410     0.6698    -2.7929 F       
  40 F40            8.7055     0.4842    -0.6864 F       
  41 C41            4.0720     1.8187     0.0836 C.3     
  42 C42            3.1579    -3.1245     0.0341 C.3     
  43 C43            2.2340    -3.3386    -1.1666 C.3     
  44 H44           -0.2409    -0.4578     1.1799 H       
  45 H45           -2.0314     0.5105    -0.2969 H       
  46 H46           -0.7921     0.8138    -1.5380 H       
  47 H47           -0.9891     3.0637     1.8858 H       
  48 H48           -2.6549    -1.7708     0.3039 H       
  49 H49           -2.8703    -4.0966    -0.4714 H       
  50 H50            0.0091    -3.3301    -3.5395 H       
  51 H51            0.2091    -1.0034    -2.7625 H       
  52 H52           -0.8876    -4.6973    -4.4260 H       
  53 H53            0.3547    -5.3547    -3.3342 H       
  54 H54           -1.9866    -6.9135    -4.5209 H       
  55 H55           -0.2867    -7.0305    -5.0383 H       
  56 H56            0.3623    -7.8193    -2.7924 H       
  57 H57           -2.6236    -7.6407    -2.1776 H       
  58 H58           -1.3620    -8.2580    -1.0830 H       
  59 H59           -0.2514    -6.0467    -1.1045 H       
  60 H60           -1.9389    -5.8974    -0.5588 H       
  61 H61           -2.0708    -9.3438    -3.8269 H       
  62 H62           -0.4379    -9.4556    -4.5265 H       
  63 H63           -0.2570    -9.9767    -1.7566 H       
  64 H64           -1.6566   -11.2897    -4.8126 H       
  65 H65           -2.0021   -13.7120    -5.2316 H       
  66 H66           -1.3545   -15.3330    -3.4609 H       
  67 H67           -0.3951   -14.5014    -1.3554 H       
  68 H68            1.4289    -0.0451    -1.1503 H       
  69 H69            5.6488    -3.2012    -0.9955 H       
  70 H70            6.4331     1.0185    -0.9450 H       
  71 H71            4.3542     2.0786     1.1038 H       
  72 H72            4.5482     2.5093    -0.6123 H       
  73 H73            2.9892     1.8855    -0.0221 H       
  74 H74            3.7471    -4.0255     0.2044 H       
  75 H75            2.5593    -2.9090     0.9192 H       
  76 H76            1.7177    -2.4070    -1.3985 H       
  77 H77            2.8243    -3.6510    -2.0280 H       
  78 H78            1.5019    -4.1102    -0.9286 H       
@<TRIPOS>BOND
   1    1    2 1
   2    1    4 2
   3    1    5 1
   4    2    3 1
   5    2   26 1
   6    2   44 1
   7    3    6 1
   8    3   45 1
   9    3   46 1
  10    5   47 1
  11    6    7 ar
  12    6   11 ar
  13    7    8 ar
  14    7   48 1
  15    8    9 ar
  16    8   49 1
  17    9   10 ar
  18    9   12 1
  19   10   11 ar
  20   10   50 1
  21   11   51 1
  22   12   13 1
  23   12   17 1
  24   13   14 1
  25   13   52 1
  26   13   53 1
  27   14   15 1
  28   14   54 1
  29   14   55 1
  30   15   16 1
  31   15   18 1
  32   15   56 1
  33   16   17 1
  34   16   57 1
  35   16   58 1
  36   17   59 1
  37   17   60 1
  38   18   19 1
  39   18   61 1
  40   18   62 1
  41   19   20 1
  42   19   63 1
  43   20   21 ar
  44   20   25 ar
  45   21   22 ar
  46   21   64 1
  47   22   23 ar
  48   22   65 1
  49   23   24 ar
  50   23   66 1
  51   24   25 ar
  52   24   67 1
  53   26   27 am
  54   26   68 1
  55   27   28 1
  56   27   34 2
  57   28   29 ar
  58   28   33 ar
  59   29   30 ar
  60   29   42 1
  61   30   31 ar
  62   30   69 1
  63   31   32 ar
  64   31   35 1
  65   32   33 ar
  66   32   70 1
  67   33   41 1
  68   35   36 2
  69   35   37 1
  70   37   38 1
  71   37   39 1
  72   37   40 1
  73   41   71 1
  74   41   72 1
  75   41   73 1
  76   42   43 1
  77   42   74 1
  78   42   75 1
  79   43   76 1
  80   43   77 1
  81   43   78 1

#	End of record

