#	Name: ASD00360008
#	Creating user name:	WinNT
#	Creation time:	15. 06. 2019 18:35

#	Modifying user name:	WinNT
#	Modification time:	15. 06. 2019 18:35

#	Program:	/corina/corina34_cracker 3.40 0067  02.08.2006

@<TRIPOS>MOLECULE
ASD00360008
  30   32    0    0    0
SMALL
NO_CHARGES


@<TRIPOS>ATOM
   1 C1            -0.0168     1.3857     0.0097 C.ar    
   2 C2             0.0021    -0.0041     0.0020 C.ar    
   3 C3             1.2060    -0.6882    -0.0137 C.ar    
   4 C4             2.4146     0.0087    -0.0211 C.ar    
   5 C5             2.4123     1.3977    -0.0128 C.ar    
   6 C6             1.1875     2.0965     0.0020 C.ar    
   7 C7             1.1874     3.5696     0.0108 C.2     
   8 C8             3.6840     2.1514    -0.0183 C.2     
   9 C9             3.6657     3.5964     0.2965 C.ar    
  10 C10            2.4401     4.2902     0.3107 C.ar    
  11 C11            2.4220     5.6543     0.6084 C.ar    
  12 C12            4.8455     4.2739     0.5793 C.ar    
  13 C13            4.8127     5.6283     0.8727 C.ar    
  14 C14            3.6160     6.3139     0.8891 C.ar    
  15 O15            1.2102    -2.0455    -0.0214 O.3     
  16 O16            4.7308     1.5910    -0.2777 O.2     
  17 O17            0.1658     4.1856    -0.2270 O.2     
  18 O18            1.2483     6.3332     0.6238 O.3     
  19 O19           -1.1989     2.0500     0.0189 O.3     
  20 C20            6.0955     6.3576     1.1786 C.3     
  21 Cl21           3.9184    -0.8585    -0.0402 Cl      
  22 H22           -0.9276    -0.5536     0.0087 H       
  23 H23            5.7874     3.7455     0.5709 H       
  24 H24            3.6049     7.3690     1.1197 H       
  25 H25            1.2027    -2.4337    -0.9070 H       
  26 H26            0.8100     6.3416     1.4858 H       
  27 H27           -1.5376     2.2379     0.9049 H       
  28 H28            6.5183     6.7523     0.2547 H       
  29 H29            5.8914     7.1795     1.8650 H       
  30 H30            6.8046     5.6686     1.6375 H       
@<TRIPOS>BOND
   1    1    2 ar
   2    1    6 ar
   3    1   19 1
   4    2    3 ar
   5    2   22 1
   6    3    4 ar
   7    3   15 1
   8    4    5 ar
   9    4   21 1
  10    5    6 ar
  11    5    8 1
  12    6    7 1
  13    7   10 1
  14    7   17 2
  15    8    9 1
  16    8   16 2
  17    9   12 ar
  18    9   10 ar
  19   10   11 ar
  20   11   14 ar
  21   11   18 1
  22   12   13 ar
  23   12   23 1
  24   13   14 ar
  25   13   20 1
  26   14   24 1
  27   15   25 1
  28   18   26 1
  29   19   27 1
  30   20   28 1
  31   20   29 1
  32   20   30 1

#	End of record

