#	Name: ASD07930811
#	Creating user name:	WinNT
#	Creation time:	15. 06. 2019 21:13

#	Modifying user name:	WinNT
#	Modification time:	15. 06. 2019 21:13

#	Program:	/corina/corina34_cracker 3.40 0067  02.08.2006

@<TRIPOS>MOLECULE
ASD07930811
  31   31    0    0    0
SMALL
NO_CHARGES


@<TRIPOS>ATOM
   1 C1            -0.0156     1.3014     0.0092 C.2     
   2 N2             0.0021    -0.0041     0.0020 N.2     
   3 C3             1.2744    -0.4292    -0.0124 C.2     
   4 C4             2.0756     0.6529    -0.0143 C.2     
   5 N5             1.2580     1.7515    -0.0005 N.pl3   
   6 C6             1.6849     3.1529     0.0025 C.3     
   7 O7             3.1124     3.2160    -0.0112 O.3     
   8 C8             3.6355     4.5459    -0.0095 C.3     
   9 C9             5.1645     4.4926    -0.0249 C.3     
  10 Si10           5.8463     6.2263    -0.0226 Si      
  11 C11            5.2714     7.1178     1.5088 C.3     
  12 C12            7.7081     6.1614    -0.0413 C.3     
  13 C13            5.2414     7.1334    -1.5332 C.3     
  14 I14           -1.7342     2.4994     0.0241 I       
  15 H15            1.5991    -1.4592    -0.0207 H       
  16 H16            3.1555     0.6542    -0.0240 H       
  17 H17            1.2905     3.6548    -0.8811 H       
  18 H18            1.3080     3.6456     0.8988 H       
  19 H19            3.2815     5.0766    -0.8934 H       
  20 H20            3.2990     5.0675     0.8865 H       
  21 H21            5.5184     3.9618     0.8590 H       
  22 H22            5.5009     3.9710    -0.9209 H       
  23 H23            5.6253     6.5870     2.3927 H       
  24 H24            5.6703     8.1321     1.5101 H       
  25 H25            4.1821     7.1558     1.5198 H       
  26 H26            8.0445     5.6398    -0.9373 H       
  27 H27            8.1071     7.1757    -0.0400 H       
  28 H28            8.0620     5.6306     0.8425 H       
  29 H29            4.1521     7.1714    -1.5223 H       
  30 H30            5.6404     8.1478    -1.5319 H       
  31 H31            5.5778     6.6119    -2.4293 H       
@<TRIPOS>BOND
   1    1    2 2
   2    1    5 1
   3    1   14 1
   4    2    3 1
   5    3    4 2
   6    3   15 1
   7    4    5 1
   8    4   16 1
   9    5    6 1
  10    6    7 1
  11    6   17 1
  12    6   18 1
  13    7    8 1
  14    8    9 1
  15    8   19 1
  16    8   20 1
  17    9   10 1
  18    9   21 1
  19    9   22 1
  20   10   11 1
  21   10   12 1
  22   10   13 1
  23   11   23 1
  24   11   24 1
  25   11   25 1
  26   12   26 1
  27   12   27 1
  28   12   28 1
  29   13   29 1
  30   13   30 1
  31   13   31 1

#	End of record

