#	Name: ASD01917819
#	Creating user name:	WinNT
#	Creation time:	15. 06. 2019 20:10

#	Modifying user name:	WinNT
#	Modification time:	15. 06. 2019 20:10

#	Program:	/corina/corina34_cracker 3.40 0067  02.08.2006

@<TRIPOS>MOLECULE
ASD01917819
  42   45    0    0    0
SMALL
NO_CHARGES


@<TRIPOS>ATOM
   1 C1             0.0451     1.1537    -0.3058 C.2     
   2 C2            -0.0213    -0.1902    -0.2648 C.2     
   3 C3            -1.3300    -0.9501    -0.1126 C.3     
   4 C4            -2.3960    -0.0055     0.4477 C.3     
   5 N5            -2.3588     1.2602    -0.3003 N.am    
   6 C6            -1.1414     2.0838    -0.1968 C.3     
   7 C7            -3.4039     1.6536    -1.0549 C.2     
   8 O8            -4.3405     0.8996    -1.2368 O.2     
   9 S9             1.7268     1.6289    -0.4973 S.3     
  10 C10            2.1980    -0.0141    -0.5016 C.2     
  11 N11            1.1659    -0.7712    -0.3722 N.2     
  12 C12            3.6164    -0.5047    -0.6375 C.3     
  13 O13            3.9237    -0.6963    -2.0199 O.3     
  14 C14            5.1732    -1.1397    -2.3185 C.ar    
  15 C15            5.5393    -1.3474    -3.6404 C.ar    
  16 C16            6.8099    -1.7983    -3.9413 C.ar    
  17 C17            7.7165    -2.0424    -2.9263 C.ar    
  18 C18            7.3540    -1.8365    -1.6080 C.ar    
  19 C19            6.0865    -1.3799    -1.3023 C.ar    
  20 C20           -3.4117     2.9978    -1.6598 C.2     
  21 C21           -4.2729     3.5088    -2.6000 C.2     
  22 O22           -3.8771     4.7628    -2.8296 O.3     
  23 N23           -2.9152     5.0841    -2.1759 N.2     
  24 C24           -2.5029     4.1252    -1.4007 C.2     
  25 C25           -5.4336     2.7955    -3.2441 C.3     
  26 H26           -1.6495    -1.3240    -1.0853 H       
  27 H27           -1.1882    -1.7865     0.5718 H       
  28 H28           -3.3799    -0.4626     0.3418 H       
  29 H29           -2.1942     0.1878     1.5013 H       
  30 H30           -1.1232     2.5987     0.7637 H       
  31 H31           -1.1161     2.8109    -1.0084 H       
  32 H32            4.2980     0.2321    -0.2126 H       
  33 H33            3.7264    -1.4502    -0.1065 H       
  34 H34            4.8314    -1.1572    -4.4336 H       
  35 H35            7.0953    -1.9605    -4.9702 H       
  36 H36            8.7095    -2.3948    -3.1636 H       
  37 H37            8.0637    -2.0286    -0.8170 H       
  38 H38            5.8038    -1.2192    -0.2724 H       
  39 H39           -1.6672     4.1491    -0.7171 H       
  40 H40           -6.3336     2.9564    -2.6505 H       
  41 H41           -5.5872     3.1862    -4.2500 H       
  42 H42           -5.2197     1.7280    -3.2976 H       
@<TRIPOS>BOND
   1    1    2 2
   2    1    9 1
   3    1    6 1
   4    2    3 1
   5    2   11 1
   6    3    4 1
   7    3   26 1
   8    3   27 1
   9    4    5 1
  10    4   28 1
  11    4   29 1
  12    5    6 1
  13    5    7 am
  14    6   30 1
  15    6   31 1
  16    7    8 2
  17    7   20 1
  18    9   10 1
  19   10   11 2
  20   10   12 1
  21   12   13 1
  22   12   32 1
  23   12   33 1
  24   13   14 1
  25   14   15 ar
  26   14   19 ar
  27   15   16 ar
  28   15   34 1
  29   16   17 ar
  30   16   35 1
  31   17   18 ar
  32   17   36 1
  33   18   19 ar
  34   18   37 1
  35   19   38 1
  36   20   21 2
  37   20   24 1
  38   21   22 1
  39   21   25 1
  40   22   23 1
  41   23   24 2
  42   24   39 1
  43   25   40 1
  44   25   41 1
  45   25   42 1

#	End of record

