#	Name: ASD01901577
#	Creating user name:	WinNT
#	Creation time:	15. 06. 2019 19:54

#	Modifying user name:	WinNT
#	Modification time:	15. 06. 2019 19:54

#	Program:	/corina/corina34_cracker 3.40 0067  02.08.2006

@<TRIPOS>MOLECULE
ASD01901577
  59   63    0    0    0
SMALL
NO_CHARGES


@<TRIPOS>ATOM
   1 C1            -0.0178     1.4608     0.0101 C.3     
   2 N2             0.0021    -0.0041     0.0020 N.am    
   3 C3             0.0055    -0.6618    -1.1703 C.2     
   4 O4             0.0969    -0.0310    -2.2051 O.2     
   5 N5            -0.0894    -2.0007    -1.2236 N.am    
   6 C6            -0.4248    -2.7195    -0.1368 C.2     
   7 O7            -0.4281    -3.9309    -0.1881 O.2     
   8 C8            -0.7964    -2.0173     1.1461 C.3     
   9 C9             0.0240    -0.7322     1.2675 C.3     
  10 C10           -0.5411     0.1472     2.3903 C.3     
  11 C11           -0.9627    -0.6939     3.5718 C.3     
  12 C12            0.1422    -1.2851     4.4113 C.3     
  13 C13            0.8376    -2.4421     3.6788 C.3     
  14 C14            1.8147    -1.8222     2.6938 C.2     
  15 C15            1.4573    -1.0711     1.6349 C.2     
  16 C16            2.6155    -0.6812     0.9654 C.2     
  17 N17            3.6407    -1.1866     1.6089 N.2     
  18 N18            3.1550    -1.9132     2.7079 N.pl3   
  19 C19            3.9631    -2.6383     3.6915 C.3     
  20 C20            0.1654    -2.6613    -2.4342 C.ar    
  21 C21           -0.8724    -2.8888    -3.3324 C.ar    
  22 F22           -2.1234    -2.4727    -3.0373 F       
  23 C23           -0.6254    -3.5384    -4.5246 C.ar    
  24 C24            0.6694    -3.9681    -4.8292 C.ar    
  25 C25            1.7096    -3.7379    -3.9244 C.ar    
  26 C26            1.4564    -3.0825    -2.7366 C.ar    
  27 F27            2.4622    -2.8547    -1.8639 F       
  28 C28            0.9294    -4.6431    -6.0651 C.1     
  29 C29            1.1426    -5.1964    -7.0784 C.1     
  30 C30            1.4026    -5.8713    -8.3143 C.ar    
  31 C31            0.3649    -6.0977    -9.2225 C.ar    
  32 C32            0.6229    -6.7485   -10.4108 C.ar    
  33 C33            1.9055    -7.1768   -10.7048 C.ar    
  34 C34            2.9380    -6.9565    -9.8101 C.ar    
  35 C35            2.6964    -6.3016    -8.6206 C.ar    
  36 H36            1.0048     1.8381     0.0023 H       
  37 H37           -0.5450     1.8219    -0.8730 H       
  38 H38           -0.5280     1.8123     0.9069 H       
  39 H39           -1.8591    -1.7750     1.1341 H       
  40 H40           -0.5796    -2.6677     1.9934 H       
  41 H41            0.2230     0.8560     2.7094 H       
  42 H42           -1.4045     0.6967     2.0152 H       
  43 H43           -1.5848    -0.0767     4.2200 H       
  44 H44           -1.5783    -1.5129     3.1999 H       
  45 H45            0.8760    -0.5102     4.6330 H       
  46 H46           -0.2785    -1.6554     5.3461 H       
  47 H47            1.3753    -3.0650     4.3937 H       
  48 H48            0.0999    -3.0404     3.1441 H       
  49 H49            2.6609    -0.0718     0.0749 H       
  50 H50            4.1122    -3.6640     3.3540 H       
  51 H51            4.9301    -2.1474     3.8001 H       
  52 H52            3.4481    -2.6432     4.6521 H       
  53 H53           -1.4316    -3.7150    -5.2212 H       
  54 H54            2.7112    -4.0688    -4.1563 H       
  55 H55           -0.6367    -5.7643    -8.9942 H       
  56 H56           -0.1781    -6.9245   -11.1135 H       
  57 H57            2.1016    -7.6858   -11.6369 H       
  58 H58            3.9364    -7.2939   -10.0461 H       
  59 H59            3.5041    -6.1258    -7.9256 H       
@<TRIPOS>BOND
   1    1    2 1
   2    1   36 1
   3    1   37 1
   4    1   38 1
   5    2    9 1
   6    2    3 am
   7    3    4 2
   8    3    5 am
   9    5    6 am
  10    5   20 1
  11    6    7 2
  12    6    8 1
  13    8    9 1
  14    8   39 1
  15    8   40 1
  16    9   15 1
  17    9   10 1
  18   10   11 1
  19   10   41 1
  20   10   42 1
  21   11   12 1
  22   11   43 1
  23   11   44 1
  24   12   13 1
  25   12   45 1
  26   12   46 1
  27   13   14 1
  28   13   47 1
  29   13   48 1
  30   14   18 1
  31   14   15 2
  32   15   16 1
  33   16   17 2
  34   16   49 1
  35   17   18 1
  36   18   19 1
  37   19   50 1
  38   19   51 1
  39   19   52 1
  40   20   26 ar
  41   20   21 ar
  42   21   22 1
  43   21   23 ar
  44   23   24 ar
  45   23   53 1
  46   24   25 ar
  47   24   28 1
  48   25   26 ar
  49   25   54 1
  50   26   27 1
  51   28   29 3
  52   29   30 1
  53   30   35 ar
  54   30   31 ar
  55   31   32 ar
  56   31   55 1
  57   32   33 ar
  58   32   56 1
  59   33   34 ar
  60   33   57 1
  61   34   35 ar
  62   34   58 1
  63   35   59 1

#	End of record

