#	Name: ASD03330465
#	Creating user name:	WinNT
#	Creation time:	15. 06. 2019 20:37

#	Modifying user name:	WinNT
#	Modification time:	15. 06. 2019 20:37

#	Program:	/corina/corina34_cracker 3.40 0067  02.08.2006

@<TRIPOS>MOLECULE
ASD03330465
  57   59    0    0    0
SMALL
NO_CHARGES


@<TRIPOS>ATOM
   1 C1            -1.2758     2.0369    -2.1571 C.3     
   2 N2            -1.1066     0.6525    -1.6939 N.3     
   3 C3            -0.3047    -0.1347    -2.6480 C.3     
   4 C4             0.9443     0.6476    -2.9622 C.2     
   5 N5             1.0961     1.9741    -2.6809 N.pl3   
   6 C6             0.0567     2.7892    -2.0461 C.3     
   7 C7             2.0938     0.2280    -3.5464 C.2     
   8 N8             2.9312     1.2884    -3.6143 N.2     
   9 C9             2.3374     2.3397    -3.0950 C.2     
  10 C10            2.9222     3.6937    -2.9809 C.ar    
  11 C11            2.3794    -1.1372    -4.0219 C.2     
  12 O12            1.5406    -2.0100    -3.9043 O.2     
  13 C13            3.8542    -2.7760    -5.0596 C.3     
  14 N14            3.5702    -1.4187    -4.5870 N.am    
  15 C15           -2.4079     0.0164    -1.4494 C.3     
  16 C16            2.8238     4.4006    -1.7825 C.ar    
  17 C17            4.3716    -3.6235    -3.8957 C.3     
  18 C18            3.2774    -3.7547    -2.8344 C.3     
  19 C19            4.7548    -5.0134    -4.4077 C.3     
  20 C20            5.6001    -2.9499    -3.2809 C.3     
  21 C21            4.8985    -2.7218    -6.1448 C.2     
  22 O22            5.5577    -1.7160    -6.3023 O.2     
  23 N23            5.0999    -3.7910    -6.9402 N.am    
  24 C24            6.1660    -3.7662    -7.9446 C.3     
  25 C25            3.3714     5.6633    -1.6824 C.ar    
  26 C26            4.0171     6.2290    -2.7671 C.ar    
  27 C27            4.1184     5.5344    -3.9591 C.ar    
  28 C28            3.5803     4.2675    -4.0708 C.ar    
  29 Cl29           3.7080     3.3966    -5.5672 Cl      
  30 H30           -1.6044     2.0335    -3.1964 H       
  31 H31           -2.0255     2.5354    -1.5428 H       
  32 H32           -0.0371    -1.0927    -2.2022 H       
  33 H33           -0.8759    -0.2994    -3.5616 H       
  34 H34           -0.0198     3.7498    -2.5556 H       
  35 H35            0.3033     2.9476    -0.9963 H       
  36 H36            2.9414    -3.2212    -5.4557 H       
  37 H37            4.2392    -0.7226    -4.6807 H       
  38 H38           -3.0143     0.0704    -2.3536 H       
  39 H39           -2.2563    -1.0276    -1.1754 H       
  40 H40           -2.9189     0.5345    -0.6379 H       
  41 H41            2.3197     3.9607    -0.9347 H       
  42 H42            2.4021    -4.2346    -3.2723 H       
  43 H43            3.6460    -4.3586    -2.0052 H       
  44 H44            3.0044    -2.7645    -2.4696 H       
  45 H45            5.4349    -4.9142    -5.2537 H       
  46 H46            5.2455    -5.5718    -3.6105 H       
  47 H47            3.8569    -5.5445    -4.7237 H       
  48 H48            5.3272    -1.9597    -2.9161 H       
  49 H49            5.9688    -3.5537    -2.4517 H       
  50 H50            6.3797    -2.8564    -4.0370 H       
  51 H51            4.5389    -4.5769    -6.8476 H       
  52 H52            7.1269    -3.6205    -7.4511 H       
  53 H53            6.1760    -4.7115    -8.4873 H       
  54 H54            5.9885    -2.9483    -8.6429 H       
  55 H55            3.2952     6.2114    -0.7549 H       
  56 H56            4.4438     7.2176    -2.6831 H       
  57 H57            4.6235     5.9817    -4.8024 H       
@<TRIPOS>BOND
   1    1    2 1
   2    1    6 1
   3    1   30 1
   4    1   31 1
   5    2    3 1
   6    2   15 1
   7    3    4 1
   8    3   32 1
   9    3   33 1
  10    4    5 1
  11    4    7 2
  12    5    6 1
  13    5    9 1
  14    6   34 1
  15    6   35 1
  16    7    8 1
  17    7   11 1
  18    8    9 2
  19    9   10 1
  20   10   16 ar
  21   10   28 ar
  22   11   12 2
  23   11   14 am
  24   13   14 1
  25   13   17 1
  26   13   21 1
  27   13   36 1
  28   14   37 1
  29   15   38 1
  30   15   39 1
  31   15   40 1
  32   16   25 ar
  33   16   41 1
  34   17   18 1
  35   17   19 1
  36   17   20 1
  37   18   42 1
  38   18   43 1
  39   18   44 1
  40   19   45 1
  41   19   46 1
  42   19   47 1
  43   20   48 1
  44   20   49 1
  45   20   50 1
  46   21   22 2
  47   21   23 am
  48   23   24 1
  49   23   51 1
  50   24   52 1
  51   24   53 1
  52   24   54 1
  53   25   26 ar
  54   25   55 1
  55   26   27 ar
  56   26   56 1
  57   27   28 ar
  58   27   57 1
  59   28   29 1

#	End of record

