#	Name: ASD01880024
#	Creating user name:	WinNT
#	Creation time:	15. 06. 2019 19:39

#	Modifying user name:	WinNT
#	Modification time:	15. 06. 2019 19:39

#	Program:	/corina/corina34_cracker 3.40 0067  02.08.2006

@<TRIPOS>MOLECULE
ASD01880024
  56   58    0    0    0
SMALL
NO_CHARGES


@<TRIPOS>ATOM
   1 N1            -0.0154     1.2831     0.0091 N.2     
   2 N2             0.0021    -0.0041     0.0020 N.pl3   
   3 N3             1.2238    -0.4138    -0.0118 N.2     
   4 C4             2.0053     0.6478    -0.0136 C.2     
   5 N5             1.1987     1.7185    -0.0002 N.2     
   6 C6             3.4895     0.6561    -0.0270 C.ar    
   7 C7             4.1809     1.8659    -0.0272 C.ar    
   8 C8             5.5599     1.8706    -0.0397 C.ar    
   9 C9             6.2594     0.6715    -0.0525 C.ar    
  10 C10            5.5732    -0.5354    -0.0524 C.ar    
  11 C11            4.1942    -0.5460    -0.0336 C.ar    
  12 C12           14.0194    -2.7941    -0.1456 C.ar    
  13 C13           14.7187    -3.9981    -0.1585 C.ar    
  14 C14           16.0831    -4.0041    -0.1770 C.ar    
  15 C15           16.7904    -2.7944    -0.1837 C.ar    
  16 C16           16.0867    -1.5763    -0.1712 C.ar    
  17 C17           14.7030    -1.5864    -0.1519 C.ar    
  18 O18           16.7602    -0.3993    -0.1771 O.3     
  19 C19           18.2552    -2.7981    -0.2031 C.2     
  20 C20           19.0052    -4.1052    -0.2159 C.3     
  21 O21           18.8646    -1.7489    -0.2088 O.2     
  22 O22            7.6180     0.6790    -0.0658 O.3     
  23 C23            8.2737    -0.5905    -0.0785 C.3     
  24 C24           12.0071    -1.5321    -0.1196 C.3     
  25 C25            9.7894    -0.3816    -0.0922 C.3     
  26 C26           10.4914    -1.7410    -0.1059 C.3     
  27 O27           12.6628    -2.8017    -0.1324 O.3     
  28 C28           13.9640    -5.3025    -0.1514 C.3     
  29 C29           13.5799    -5.6772    -1.5841 C.3     
  30 C30           12.8137    -7.0016    -1.5769 C.3     
  31 H31           -0.7815    -0.5759     0.0069 H       
  32 H32            3.6372     2.7991    -0.0179 H       
  33 H33            6.0963     2.8080    -0.0399 H       
  34 H34            6.1199    -1.4668    -0.0627 H       
  35 H35            3.6609    -1.4852    -0.0335 H       
  36 H36           16.6184    -4.9421    -0.1862 H       
  37 H37           14.1557    -0.6554    -0.1426 H       
  38 H38           16.9439    -0.0556    -1.0621 H       
  39 H39           19.1725    -4.4180    -1.2466 H       
  40 H40           19.9647    -3.9784     0.2855 H       
  41 H41           18.4211    -4.8644     0.3040 H       
  42 H42            7.9926    -1.1536     0.8114 H       
  43 H43            7.9753    -1.1447    -0.9684 H       
  44 H44           12.2882    -0.9690    -1.0096 H       
  45 H45           12.3055    -0.9779     0.7703 H       
  46 H46           10.0705     0.1815    -0.9822 H       
  47 H47           10.0878     0.1725     0.7977 H       
  48 H48           10.1930    -2.2951    -0.9958 H       
  49 H49           10.2103    -2.3041     0.7840 H       
  50 H50           14.5942    -6.0845     0.2722 H       
  51 H51           13.0617    -5.1970     0.4510 H       
  52 H52           12.9497    -4.8952    -2.0077 H       
  53 H53           14.4822    -5.7828    -2.1865 H       
  54 H54           13.4439    -7.7836    -1.1534 H       
  55 H55           11.9114    -6.8961    -0.9746 H       
  56 H56           12.5400    -7.2685    -2.5977 H       
@<TRIPOS>BOND
   1    1    2 1
   2    1    5 2
   3    2    3 1
   4    2   31 1
   5    3    4 2
   6    4    5 1
   7    4    6 1
   8    6    7 ar
   9    6   11 ar
  10    7    8 ar
  11    7   32 1
  12    8    9 ar
  13    8   33 1
  14    9   10 ar
  15    9   22 1
  16   10   11 ar
  17   10   34 1
  18   11   35 1
  19   12   13 ar
  20   12   17 ar
  21   12   27 1
  22   13   14 ar
  23   13   28 1
  24   14   15 ar
  25   14   36 1
  26   15   16 ar
  27   15   19 1
  28   16   17 ar
  29   16   18 1
  30   17   37 1
  31   18   38 1
  32   19   20 1
  33   19   21 2
  34   20   39 1
  35   20   40 1
  36   20   41 1
  37   22   23 1
  38   23   25 1
  39   23   42 1
  40   23   43 1
  41   24   27 1
  42   24   26 1
  43   24   44 1
  44   24   45 1
  45   25   26 1
  46   25   46 1
  47   25   47 1
  48   26   48 1
  49   26   49 1
  50   28   29 1
  51   28   50 1
  52   28   51 1
  53   29   30 1
  54   29   52 1
  55   29   53 1
  56   30   54 1
  57   30   55 1
  58   30   56 1

#	End of record

