#	Name: ASD08070248
#	Creating user name:	WinNT
#	Creation time:	15. 06. 2019 21:14

#	Modifying user name:	WinNT
#	Modification time:	15. 06. 2019 21:14

#	Program:	/corina/corina34_cracker 3.40 0067  02.08.2006

@<TRIPOS>MOLECULE
ASD08070248
  32   34    0    0    0
SMALL
NO_CHARGES


@<TRIPOS>ATOM
   1 N1            -0.0172     1.3441     0.0193 N.am    
   2 C2             0.0015    -0.0033    -0.0081 C.2     
   3 O3             1.0624    -0.5958    -0.0486 O.2     
   4 N4            -1.1558    -0.6938     0.0094 N.am    
   5 C5            -1.1402    -2.0891    -0.1040 C.ar    
   6 C6            -2.2462    -2.7589    -0.6138 C.ar    
   7 C7            -2.2269    -4.1362    -0.7246 C.ar    
   8 C8             1.1479     2.2344     0.0056 C.3     
   9 C9            -0.0180    -2.8062     0.2873 C.ar    
  10 C10           -0.0054    -4.1831     0.1738 C.ar    
  11 C11           -1.1088    -4.8474    -0.3288 C.ar    
  12 C12            0.6409     3.6537     0.0477 C.ar    
  13 C13           -0.7392     3.6338     0.0845 C.ar    
  14 C14           -1.2068     2.2005     0.0621 C.3     
  15 C15            1.3147     4.8631     0.0536 C.ar    
  16 C16            0.6085     6.0496     0.0968 C.ar    
  17 C17           -0.7734     6.0296     0.1338 C.ar    
  18 C18           -1.4464     4.8232     0.1270 C.ar    
  19 Cl19          -3.6501    -1.8666    -1.1103 Cl      
  20 H20           -1.9996    -0.2240     0.1005 H       
  21 H21           -3.0859    -4.6577    -1.1203 H       
  22 H22            1.7723     2.0391     0.8775 H       
  23 H23            1.7241     2.0747    -0.9058 H       
  24 H24            0.8446    -2.2883     0.6797 H       
  25 H25            0.8678    -4.7413     0.4778 H       
  26 H26           -1.0961    -5.9238    -0.4160 H       
  27 H27           -1.8260     2.0276    -0.8181 H       
  28 H28           -1.7778     1.9840     0.9650 H       
  29 H29            2.3942     4.8789     0.0248 H       
  30 H30            1.1356     6.9922     0.1021 H       
  31 H31           -1.3265     6.9567     0.1675 H       
  32 H32           -2.5259     4.8079     0.1559 H       
@<TRIPOS>BOND
   1    1    2 am
   2    1    8 1
   3    1   14 1
   4    2    3 2
   5    2    4 am
   6    4    5 1
   7    4   20 1
   8    5    6 ar
   9    5    9 ar
  10    6    7 ar
  11    6   19 1
  12    7   11 ar
  13    7   21 1
  14    8   12 1
  15    8   22 1
  16    8   23 1
  17    9   10 ar
  18    9   24 1
  19   10   11 ar
  20   10   25 1
  21   11   26 1
  22   12   13 ar
  23   12   15 ar
  24   13   14 1
  25   13   18 ar
  26   14   27 1
  27   14   28 1
  28   15   16 ar
  29   15   29 1
  30   16   17 ar
  31   16   30 1
  32   17   18 ar
  33   17   31 1
  34   18   32 1

#	End of record

