#	Name: ASD03731729
#	Creating user name:	WinNT
#	Creation time:	15. 06. 2019 20:46

#	Modifying user name:	WinNT
#	Modification time:	15. 06. 2019 20:46

#	Program:	/corina/corina34_cracker 3.40 0067  02.08.2006

@<TRIPOS>MOLECULE
ASD03731729
  40   41    0    0    0
SMALL
NO_CHARGES


@<TRIPOS>ATOM
   1 C1            -0.7956     1.3891     0.4229 C.2     
   2 C2            -0.5707    -0.0649     0.3061 C.ar    
   3 C3             0.5774    -0.5475    -0.3278 C.ar    
   4 C4             0.7838    -1.9047    -0.4344 C.ar    
   5 C5            -0.1484    -2.7945     0.0872 C.ar    
   6 C6            -1.2919    -2.3182     0.7185 C.ar    
   7 C7            -1.5026    -0.9625     0.8341 C.ar    
   8 O8             0.0187     2.1687    -0.0327 O.2     
   9 N9            -1.9062     1.8527     1.0296 N.am    
  10 S10           -2.1584     3.4841     1.1607 S.o2    
  11 O11           -3.3884     3.5931     1.8639 O.2     
  12 O12           -0.9496     3.9820     1.7176 O.2     
  13 C13           -2.3516     4.0513    -0.5515 C.3     
  14 O14            0.0581    -4.1312    -0.0206 O.3     
  15 C15           -0.4512    -4.7702    -1.1074 C.ar    
  16 C16           -0.3654    -6.1563    -1.2055 C.ar    
  17 C17           -0.8858    -6.8025    -2.3149 C.ar    
  18 C18           -1.4887    -6.0710    -3.3216 C.ar    
  19 C19           -1.5735    -4.6948    -3.2245 C.ar    
  20 C20           -1.0617    -4.0439    -2.1171 C.ar    
  21 C21           -2.0542    -6.7758    -4.5276 C.3     
  22 O22            0.2282    -6.8742    -0.2149 O.3     
  23 C23            0.2802    -8.2923    -0.3831 C.3     
  24 H24            1.3016     0.1431    -0.7339 H       
  25 H25            1.6709    -2.2784    -0.9241 H       
  26 H26           -2.0138    -3.0126     1.1224 H       
  27 H27           -2.3891    -0.5932     1.3283 H       
  28 H28           -2.5577     1.2307     1.3896 H       
  29 H29           -3.2009     3.5437    -1.0088 H       
  30 H30           -2.5237     5.1276    -0.5605 H       
  31 H31           -1.4462     3.8234    -1.1140 H       
  32 H32           -0.8203    -7.8776    -2.3936 H       
  33 H33           -2.0449    -4.1271    -4.0131 H       
  34 H34           -1.1336    -2.9689    -2.0415 H       
  35 H35           -3.0963    -7.0355    -4.3412 H       
  36 H36           -1.9932    -6.1180    -5.3946 H       
  37 H37           -1.4822    -7.6836    -4.7193 H       
  38 H38            0.7779    -8.7421     0.4760 H       
  39 H39           -0.7330    -8.6860    -0.4633 H       
  40 H40            0.8354    -8.5304    -1.2904 H       
@<TRIPOS>BOND
   1    1    2 1
   2    1    8 2
   3    1    9 am
   4    2    3 ar
   5    2    7 ar
   6    3    4 ar
   7    3   24 1
   8    4    5 ar
   9    4   25 1
  10    5    6 ar
  11    5   14 1
  12    6    7 ar
  13    6   26 1
  14    7   27 1
  15    9   10 am
  16    9   28 1
  17   10   11 2
  18   10   12 2
  19   10   13 1
  20   13   29 1
  21   13   30 1
  22   13   31 1
  23   14   15 1
  24   15   16 ar
  25   15   20 ar
  26   16   17 ar
  27   16   22 1
  28   17   18 ar
  29   17   32 1
  30   18   19 ar
  31   18   21 1
  32   19   20 ar
  33   19   33 1
  34   20   34 1
  35   21   35 1
  36   21   36 1
  37   21   37 1
  38   22   23 1
  39   23   38 1
  40   23   39 1
  41   23   40 1

#	End of record

