#	Name: ASD01120329
#	Creating user name:	WinNT
#	Creation time:	15. 06. 2019 18:59

#	Modifying user name:	WinNT
#	Modification time:	15. 06. 2019 18:59

#	Program:	/corina/corina34_cracker 3.40 0067  02.08.2006

@<TRIPOS>MOLECULE
ASD01120329
  34   36    0    0    0
SMALL
NO_CHARGES


@<TRIPOS>ATOM
   1 C1            -0.0184     1.5028     0.0103 C.3     
   2 C2             0.0021    -0.0041     0.0020 C.ar    
   3 C3             0.0229    -0.7006     1.1969 C.ar    
   4 C4             0.0422    -2.0842     1.1974 C.ar    
   5 C5             0.0408    -2.7773     0.0045 C.ar    
   6 C6             0.0194    -2.0805    -1.2037 C.ar    
   7 C7            -0.0057    -0.6863    -1.1976 C.ar    
   8 C8             0.0182    -2.8187    -2.4880 C.ar    
   9 C9            -0.9132    -2.5130    -3.4692 C.ar    
  10 C10           -0.9153    -3.2031    -4.6715 C.ar    
  11 C11            0.0031    -4.2012    -4.9140 C.ar    
  12 C12            0.9507    -4.5312    -3.9486 C.ar    
  13 C13            0.9686    -3.8350    -2.7253 C.ar    
  14 C14            2.0209    -4.3767    -1.9550 C.2     
  15 C15            2.6095    -5.3592    -2.6899 C.2     
  16 N16            1.9663    -5.4576    -3.9089 N.pl3   
  17 C17            3.7485    -6.1796    -2.2588 C.2     
  18 O18            4.2428    -6.0049    -1.1618 O.2     
  19 O19            4.2463    -7.1268    -3.0796 O.3     
  20 N20           -0.0179    -4.9254    -6.2049 N.pl3   
  21 O21           -0.8462    -4.6386    -7.0506 O.2     
  22 O22            0.7930    -5.8080    -6.4213 O.2     
  23 H23            1.0042     1.8801     0.0026 H       
  24 H24           -0.5455     1.8639    -0.8728 H       
  25 H25           -0.5286     1.8543     0.9071 H       
  26 H26            0.0244    -0.1624     2.1332 H       
  27 H27            0.0587    -2.6225     2.1335 H       
  28 H28            0.0566    -3.8572     0.0061 H       
  29 H29           -0.0223    -0.1413    -2.1299 H       
  30 H30           -1.6405    -1.7338    -3.2956 H       
  31 H31           -1.6461    -2.9556    -5.4272 H       
  32 H32            2.3075    -4.0666    -0.9610 H       
  33 H33            2.1907    -6.0809    -4.6175 H       
  34 H34            4.9964    -7.6415    -2.7519 H       
@<TRIPOS>BOND
   1    1    2 1
   2    1   23 1
   3    1   24 1
   4    1   25 1
   5    2    3 ar
   6    2    7 ar
   7    3    4 ar
   8    3   26 1
   9    4    5 ar
  10    4   27 1
  11    5    6 ar
  12    5   28 1
  13    6    7 ar
  14    6    8 1
  15    7   29 1
  16    8    9 ar
  17    8   13 ar
  18    9   10 ar
  19    9   30 1
  20   10   11 ar
  21   10   31 1
  22   11   12 ar
  23   11   20 1
  24   12   13 ar
  25   12   16 1
  26   13   14 1
  27   14   15 2
  28   14   32 1
  29   15   16 1
  30   15   17 1
  31   16   33 1
  32   17   18 2
  33   17   19 1
  34   19   34 1
  35   20   21 2
  36   20   22 2

#	End of record

