#	Name: ASD01152555
#	Creating user name:	WinNT
#	Creation time:	15. 06. 2019 19:06

#	Modifying user name:	WinNT
#	Modification time:	15. 06. 2019 19:06

#	Program:	/corina/corina34_cracker 3.40 0067  02.08.2006

@<TRIPOS>MOLECULE
ASD01152555
  58   61    0    0    0
SMALL
NO_CHARGES


@<TRIPOS>ATOM
   1 C1             0.1114     1.1570    -0.6960 C.2     
   2 N2             0.0190    -0.1437    -0.6175 N.2     
   3 N3            -1.1204    -0.7661    -0.1080 N.am    
   4 C4            -2.2614    -0.0993     0.1329 C.2     
   5 C5            -2.3923     1.3536    -0.2592 C.3     
   6 C6            -1.0083     1.9736    -0.2035 C.2     
   7 C7            -2.9556     1.4586    -1.6779 C.3     
   8 O8            -0.8357     3.0970     0.2223 O.2     
   9 C9            -1.0734    -2.1389     0.1623 C.ar    
  10 O10           -3.1906    -0.6663     0.6673 O.2     
  11 C11           -3.1984     2.9070    -2.0160 C.ar    
  12 C12           -0.0101    -2.6693     0.8797 C.ar    
  13 C13           -2.0938    -2.9703    -0.2824 C.ar    
  14 C14           -2.0490    -4.3251    -0.0160 C.ar    
  15 C15           -0.9884    -4.8582     0.6946 C.ar    
  16 C16            0.0334    -4.0297     1.1463 C.ar    
  17 C17           -2.1979     3.6545    -2.6059 C.ar    
  18 C18           -4.4245     3.4842    -1.7405 C.ar    
  19 C19           -4.6522     4.8126    -2.0498 C.ar    
  20 C20           -2.4222     4.9891    -2.9178 C.ar    
  21 C21           -3.6540     5.5678    -2.6358 C.ar    
  22 N22           -1.4121     5.7481    -3.5150 N.3     
  23 Cl23          -3.9403     7.2354    -3.0245 Cl      
  24 F24           -0.9478    -6.1833     0.9543 F       
  25 C25           -0.2159     5.8059    -2.6549 C.3     
  26 C26            0.9694     5.2674    -3.4835 C.3     
  27 C27            0.4926     5.4670    -4.9463 C.3     
  28 C28           -1.0243     5.1783    -4.8230 C.3     
  29 O29            1.2213     1.7434    -1.2164 O.3     
  30 C30            2.2637     0.8752    -1.6655 C.3     
  31 N31            1.1045    -4.5683     1.8702 N.am    
  32 C32            1.7680    -3.8044     2.7605 C.2     
  33 O33            1.4983    -2.6269     2.8693 O.2     
  34 C34            2.8451    -4.4133     3.6209 C.3     
  35 H35           -3.0528     1.8666     0.4399 H       
  36 H36           -2.2418     1.0353    -2.3845 H       
  37 H37           -3.8952     0.9092    -1.7373 H       
  38 H38            0.7821    -2.0238     1.2293 H       
  39 H39           -2.9234    -2.5568    -0.8368 H       
  40 H40           -2.8435    -4.9693    -0.3628 H       
  41 H41           -1.2420     3.2017    -2.8240 H       
  42 H42           -5.2063     2.8960    -1.2830 H       
  43 H43           -5.6110     5.2602    -1.8337 H       
  44 H44           -0.0225     6.8365    -2.3574 H       
  45 H45           -0.3637     5.1842    -1.7719 H       
  46 H46            1.8709     5.8486    -3.2893 H       
  47 H47            1.1380     4.2112    -3.2738 H       
  48 H48            0.6696     6.4899    -5.2785 H       
  49 H49            0.9731     4.7524    -5.6145 H       
  50 H50           -1.2086     4.1041    -4.8387 H       
  51 H51           -1.5708     5.6697    -5.6280 H       
  52 H52            3.0888     1.4703    -2.0569 H       
  53 H53            2.6166     0.2693    -0.8310 H       
  54 H54            1.8808     0.2239    -2.4512 H       
  55 H55            1.3688    -5.4911     1.7308 H       
  56 H56            3.8054    -4.3334     3.1115 H       
  57 H57            2.8931    -3.8834     4.5722 H       
  58 H58            2.6157    -5.4635     3.8011 H       
@<TRIPOS>BOND
   1    1    2 2
   2    1   29 1
   3    1    6 1
   4    2    3 1
   5    3    4 am
   6    3    9 1
   7    4    5 1
   8    4   10 2
   9    5    6 1
  10    5    7 1
  11    5   35 1
  12    6    8 2
  13    7   11 1
  14    7   36 1
  15    7   37 1
  16    9   12 ar
  17    9   13 ar
  18   11   17 ar
  19   11   18 ar
  20   12   16 ar
  21   12   38 1
  22   13   14 ar
  23   13   39 1
  24   14   15 ar
  25   14   40 1
  26   15   16 ar
  27   15   24 1
  28   16   31 1
  29   17   20 ar
  30   17   41 1
  31   18   19 ar
  32   18   42 1
  33   19   21 ar
  34   19   43 1
  35   20   22 1
  36   20   21 ar
  37   21   23 1
  38   22   25 1
  39   22   28 1
  40   25   26 1
  41   25   44 1
  42   25   45 1
  43   26   27 1
  44   26   46 1
  45   26   47 1
  46   27   28 1
  47   27   48 1
  48   27   49 1
  49   28   50 1
  50   28   51 1
  51   29   30 1
  52   30   52 1
  53   30   53 1
  54   30   54 1
  55   31   32 am
  56   31   55 1
  57   32   33 2
  58   32   34 1
  59   34   56 1
  60   34   57 1
  61   34   58 1

#	End of record

