#	Name: ASD01914144
#	Creating user name:	WinNT
#	Creation time:	15. 06. 2019 20:02

#	Modifying user name:	WinNT
#	Modification time:	15. 06. 2019 20:02

#	Program:	/corina/corina34_cracker 3.40 0067  02.08.2006

@<TRIPOS>MOLECULE
ASD01914144
  48   51    0    0    0
SMALL
NO_CHARGES


@<TRIPOS>ATOM
   1 C1            -2.8132    -0.1162    -1.2881 C.2     
   2 C2            -2.1810    -1.3892    -0.8837 C.2     
   3 N3            -2.8010    -2.4504    -0.3160 N.2     
   4 C4            -1.8647    -3.3465    -0.1301 C.2     
   5 O5            -0.7203    -2.8214    -0.5793 O.3     
   6 N6            -0.9159    -1.7054    -1.0123 N.2     
   7 C7            -2.0434    -4.7139     0.4776 C.3     
   8 C8            -1.6284    -5.7820    -0.5368 C.3     
   9 C9            -0.1700    -5.5612    -0.9447 C.3     
  10 C10            0.7270    -5.6928     0.2901 C.3     
  11 N11            0.2438    -4.7698     1.3261 N.am    
  12 C12           -1.1677    -4.8359     1.7286 C.3     
  13 C13            2.1678    -5.3371    -0.0822 C.3     
  14 C14            1.0795    -3.8793     1.8964 C.2     
  15 C15            0.5554    -2.8825     2.8570 C.ar    
  16 C16           -0.7315    -2.3581     2.7163 C.ar    
  17 C17           -1.1824    -1.4261     3.6404 C.ar    
  18 N18           -0.4112    -1.0357     4.6404 N.ar    
  19 C19            0.8089    -1.5069     4.8075 C.ar    
  20 C20            1.3349    -2.4434     3.9360 C.ar    
  21 O21            2.2633    -3.8947     1.6219 O.2     
  22 C22           -2.1809     0.9478    -1.8595 C.2     
  23 C23           -3.1486     1.9404    -2.0794 C.2     
  24 C24           -4.3349     1.4619    -1.6411 C.2     
  25 N25           -4.1417     0.2021    -1.1606 N.pl3   
  26 Cl26          -2.8720     3.5018    -2.7859 Cl      
  27 F27            2.5860    -2.9203     4.1163 F       
  28 O28           -2.4309    -0.9085     3.5154 O.3     
  29 C29           -2.8385     0.0466     4.4971 C.3     
  30 H30           -3.0892    -4.8573     0.7496 H       
  31 H31           -1.7344    -6.7697    -0.0882 H       
  32 H32           -2.2663    -5.7132    -1.4180 H       
  33 H33            0.1179    -6.3079    -1.6847 H       
  34 H34           -0.0583    -4.5642    -1.3709 H       
  35 H35            0.6860    -6.7158     0.6642 H       
  36 H36           -1.3914    -4.0172     2.4125 H       
  37 H37           -1.3632    -5.7890     2.2200 H       
  38 H38            2.2273    -4.2781    -0.3334 H       
  39 H39            2.8238    -5.5476     0.7625 H       
  40 H40            2.4786    -5.9323    -0.9408 H       
  41 H41           -1.3658    -2.6728     1.9008 H       
  42 H42            1.4046    -1.1596     5.6388 H       
  43 H43           -1.1298     1.0147    -2.0984 H       
  44 H44           -5.2776     1.9881    -1.6713 H       
  45 H45           -4.8276    -0.3716    -0.7846 H       
  46 H46           -2.8095    -0.4129     5.4851 H       
  47 H47           -2.1632     0.9019     4.4743 H       
  48 H48           -3.8537     0.3793     4.2808 H       
@<TRIPOS>BOND
   1    1    2 1
   2    1   22 2
   3    1   25 1
   4    2    3 1
   5    2    6 2
   6    3    4 2
   7    4    5 1
   8    4    7 1
   9    5    6 1
  10    7    8 1
  11    7   12 1
  12    7   30 1
  13    8    9 1
  14    8   31 1
  15    8   32 1
  16    9   10 1
  17    9   33 1
  18    9   34 1
  19   10   11 1
  20   10   13 1
  21   10   35 1
  22   11   12 1
  23   11   14 am
  24   12   36 1
  25   12   37 1
  26   13   38 1
  27   13   39 1
  28   13   40 1
  29   14   15 1
  30   14   21 2
  31   15   16 ar
  32   15   20 ar
  33   16   17 ar
  34   16   41 1
  35   17   18 ar
  36   17   28 1
  37   18   19 ar
  38   19   20 ar
  39   19   42 1
  40   20   27 1
  41   22   23 1
  42   22   43 1
  43   23   24 2
  44   23   26 1
  45   24   25 1
  46   24   44 1
  47   25   45 1
  48   28   29 1
  49   29   46 1
  50   29   47 1
  51   29   48 1

#	End of record

