#	Name: ASD01813649
#	Creating user name:	WinNT
#	Creation time:	15. 06. 2019 19:30

#	Modifying user name:	WinNT
#	Modification time:	15. 06. 2019 19:30

#	Program:	/corina/corina34_cracker 3.40 0067  02.08.2006

@<TRIPOS>MOLECULE
ASD01813649
  51   54    0    0    0
SMALL
NO_CHARGES


@<TRIPOS>ATOM
   1 C1             0.1383     1.5234     0.3341 C.ar    
   2 C2             0.1038     0.1365     0.3282 C.ar    
   3 C3             1.2658    -0.5965     0.2035 C.ar    
   4 C4             2.4914     0.0577     0.0819 C.ar    
   5 C5             2.5216     1.4622     0.0883 C.ar    
   6 C6             1.3381     2.1895     0.2152 C.ar    
   7 N7             3.6605    -0.6625    -0.0424 N.pl3   
   8 C8             4.8611    -0.0820    -0.1606 C.2     
   9 C9             5.0175     1.2896    -0.1668 C.2     
  10 C10            3.8242     2.1418    -0.0411 C.2     
  11 O11            3.9090     3.3574    -0.0415 O.2     
  12 C12            6.3532     1.8887    -0.2976 C.2     
  13 O13            6.4930     3.2295    -0.3023 O.3     
  14 O14            7.3319     1.1752    -0.4015 O.2     
  15 C15            3.5858    -2.1256    -0.0447 C.3     
  16 C16            3.4434    -2.6191    -1.4614 C.ar    
  17 C17            4.5600    -2.7775    -2.2605 C.ar    
  18 N18            4.4489    -3.2082    -3.5010 N.ar    
  19 C19            3.2692    -3.5056    -4.0308 C.ar    
  20 C20            2.1017    -3.3691    -3.2815 C.ar    
  21 C21            2.1901    -2.9243    -1.9744 C.ar    
  22 F22            1.2166    -1.9466     0.1998 F       
  23 C23            3.1923    -3.9864    -5.4311 C.ar    
  24 C24            4.3561    -4.1249    -6.1868 C.ar    
  25 C25            4.2823    -4.5719    -7.4883 C.ar    
  26 C26            3.0484    -4.8844    -8.0482 C.ar    
  27 C27            1.8867    -4.7470    -7.2965 C.ar    
  28 C28            1.9565    -4.3062    -5.9926 C.ar    
  29 N29            2.9759    -5.3358    -9.3658 N.pl3   
  30 C30            4.1809    -5.3614   -10.1987 C.3     
  31 C31            1.6948    -5.7843    -9.9170 C.3     
  32 H32           -0.7803     2.0835     0.4279 H       
  33 H33           -0.8429    -0.3747     0.4225 H       
  34 H34            1.3624     3.2692     0.2197 H       
  35 H35            5.7365    -0.7077    -0.2538 H       
  36 H36            7.3911     3.5770    -0.3906 H       
  37 H37            4.4953    -2.5365     0.3935 H       
  38 H38            2.7237    -2.4463     0.5402 H       
  39 H39            5.5369    -2.5448    -1.8629 H       
  40 H40            1.1421    -3.6111    -3.7139 H       
  41 H41            1.3029    -2.8090    -1.3693 H       
  42 H42            5.3146    -3.8816    -5.7525 H       
  43 H43            5.1833    -4.6794    -8.0739 H       
  44 H44            0.9294    -4.9902    -7.7333 H       
  45 H45            1.0540    -4.1996    -5.4091 H       
  46 H46            5.0447    -5.0797    -9.5966 H       
  47 H47            4.3267    -6.3659   -10.5959 H       
  48 H48            4.0676    -4.6575   -11.0232 H       
  49 H49            1.1783    -4.9384   -10.3707 H       
  50 H50            1.8724    -6.5494   -10.6728 H       
  51 H51            1.0805    -6.1988    -9.1177 H       
@<TRIPOS>BOND
   1    1    2 ar
   2    1    6 ar
   3    1   32 1
   4    2    3 ar
   5    2   33 1
   6    3    4 ar
   7    3   22 1
   8    4    5 ar
   9    4    7 1
  10    5    6 ar
  11    5   10 1
  12    6   34 1
  13    7    8 1
  14    7   15 1
  15    8    9 2
  16    8   35 1
  17    9   10 1
  18    9   12 1
  19   10   11 2
  20   12   13 1
  21   12   14 2
  22   13   36 1
  23   15   16 1
  24   15   37 1
  25   15   38 1
  26   16   17 ar
  27   16   21 ar
  28   17   18 ar
  29   17   39 1
  30   18   19 ar
  31   19   20 ar
  32   19   23 1
  33   20   21 ar
  34   20   40 1
  35   21   41 1
  36   23   24 ar
  37   23   28 ar
  38   24   25 ar
  39   24   42 1
  40   25   26 ar
  41   25   43 1
  42   26   27 ar
  43   26   29 1
  44   27   28 ar
  45   27   44 1
  46   28   45 1
  47   29   30 1
  48   29   31 1
  49   30   46 1
  50   30   47 1
  51   30   48 1
  52   31   49 1
  53   31   50 1
  54   31   51 1

#	End of record

