#	Name: ASD01813664
#	Creating user name:	WinNT
#	Creation time:	15. 06. 2019 19:30

#	Modifying user name:	WinNT
#	Modification time:	15. 06. 2019 19:30

#	Program:	/corina/corina34_cracker 3.40 0067  02.08.2006

@<TRIPOS>MOLECULE
ASD01813664
  50   54    0    0    0
SMALL
NO_CHARGES


@<TRIPOS>ATOM
   1 C1             0.0987     1.4752     0.3555 C.ar    
   2 C2             0.0803     0.0890     0.3475 C.ar    
   3 C3             1.2503    -0.6314     0.2175 C.ar    
   4 C4             2.4682     0.0345     0.0920 C.ar    
   5 C5             2.4852     1.4397     0.0998 C.ar    
   6 C6             1.2932     2.1563     0.2325 C.ar    
   7 N7             3.6440    -0.6744    -0.0375 N.pl3   
   8 C8             4.8384    -0.0818    -0.1600 C.2     
   9 C9             4.9810     1.2911    -0.1654 C.2     
  10 C10            3.7795     2.1315    -0.0338 C.2     
  11 O11            3.8524     3.3479    -0.0334 O.2     
  12 C12            6.3099     1.9036    -0.3010 C.2     
  13 O13            6.4363     3.2457    -0.3048 O.3     
  14 O14            7.2953     1.1999    -0.4098 O.2     
  15 C15            3.5837    -2.1382    -0.0406 C.3     
  16 C16            3.4403    -2.6321    -1.4571 C.ar    
  17 C17            4.5551    -2.7792    -2.2609 C.ar    
  18 N18            4.4429    -3.2096    -3.5014 N.ar    
  19 C19            3.2642    -3.5179    -4.0265 C.ar    
  20 C20            2.0987    -3.3933    -3.2726 C.ar    
  21 C21            2.1880    -2.9489    -1.9652 C.ar    
  22 F22            1.2151    -1.9819     0.2124 F       
  23 F23            1.3093     3.5071     0.2396 F       
  24 C24            3.1862    -3.9986    -5.4273 C.ar    
  25 C25            1.9392    -4.2250    -6.0195 C.ar    
  26 C26            1.8497    -4.6674    -7.3077 C.ar    
  27 C27            3.0040    -4.8990    -8.0505 C.ar    
  28 C28            4.2647    -4.6742    -7.4653 C.ar    
  29 C29            4.3510    -4.2178    -6.1509 C.ar    
  30 N30            3.2269    -5.3347    -9.3370 N.pl3   
  31 C31            4.5716    -5.3927    -9.5833 C.2     
  32 C32            5.2539    -5.0068    -8.4939 C.2     
  33 C33            2.1796    -5.6845   -10.2999 C.3     
  34 H34           -0.8258     2.0247     0.4539 H       
  35 H35           -0.8601    -0.4331     0.4443 H       
  36 H36            5.7196    -0.6986    -0.2576 H       
  37 H37            7.3305     3.6022    -0.3965 H       
  38 H38            4.4990    -2.5405     0.3935 H       
  39 H39            2.7272    -2.4678     0.5476 H       
  40 H40            5.5313    -2.5377    -1.8671 H       
  41 H41            1.1397    -3.6439    -3.7015 H       
  42 H42            1.3022    -2.8427    -1.3565 H       
  43 H43            1.0379    -4.0482    -5.4514 H       
  44 H44            0.8803    -4.8386    -7.7519 H       
  45 H45            5.3153    -4.0433    -5.6969 H       
  46 H46            5.0180    -5.7037   -10.5162 H       
  47 H47            6.3279    -4.9518    -8.3943 H       
  48 H48            1.9009    -4.7990   -10.8712 H       
  49 H49            2.5515    -6.4524   -10.9782 H       
  50 H50            1.3072    -6.0622    -9.7666 H       
@<TRIPOS>BOND
   1    1    2 ar
   2    1    6 ar
   3    1   34 1
   4    2    3 ar
   5    2   35 1
   6    3   22 1
   7    3    4 ar
   8    4    5 ar
   9    4    7 1
  10    5    6 ar
  11    5   10 1
  12    6   23 1
  13    7    8 1
  14    7   15 1
  15    8    9 2
  16    8   36 1
  17    9   10 1
  18    9   12 1
  19   10   11 2
  20   12   13 1
  21   12   14 2
  22   13   37 1
  23   15   16 1
  24   15   38 1
  25   15   39 1
  26   16   17 ar
  27   16   21 ar
  28   17   18 ar
  29   17   40 1
  30   18   19 ar
  31   19   20 ar
  32   19   24 1
  33   20   21 ar
  34   20   41 1
  35   21   42 1
  36   24   25 ar
  37   24   29 ar
  38   25   26 ar
  39   25   43 1
  40   26   27 ar
  41   26   44 1
  42   27   28 ar
  43   27   30 1
  44   28   29 ar
  45   28   32 1
  46   29   45 1
  47   30   31 1
  48   30   33 1
  49   31   32 2
  50   31   46 1
  51   32   47 1
  52   33   48 1
  53   33   49 1
  54   33   50 1

#	End of record

