#	Name: ASD01180288
#	Creating user name:	WinNT
#	Creation time:	15. 06. 2019 19:07

#	Modifying user name:	WinNT
#	Modification time:	15. 06. 2019 19:07

#	Program:	/corina/corina34_cracker 3.40 0067  02.08.2006

@<TRIPOS>MOLECULE
ASD01180288
  66   69    0    0    0
SMALL
NO_CHARGES


@<TRIPOS>ATOM
   1 C1             0.1676     1.2858     2.1927 C.2     
   2 C2             0.1747    -0.2014     1.9493 C.3     
   3 C3             1.5614    -0.6327     1.4676 C.3     
   4 O4             1.1688     1.9342     2.0006 O.2     
   5 O5            -0.9527     1.8910     2.6175 O.3     
   6 C6             2.6915    -2.6853     0.7991 C.2     
   7 C7             2.6985    -4.1413     0.5609 C.ar    
   8 C8             3.8627    -4.7834     0.1111 C.ar    
   9 C9             3.8237    -6.1355    -0.0967 C.ar    
  10 C10            2.6390    -6.8303     0.1423 C.ar    
  11 N11            1.5528    -6.1992     0.5667 N.ar    
  12 C12            1.5493    -4.9007     0.7850 C.ar    
  13 O13            3.6992    -2.0327     0.6058 O.2     
  14 N14            1.5683    -2.0785     1.2311 N.am    
  15 N15            2.5959    -8.1983    -0.0669 N.pl3   
  16 C16            3.8360    -8.9436    -0.2967 C.3     
  17 C17            5.4056   -10.2864     3.4467 C.ar    
  18 C18            4.5164   -11.0878     2.7334 C.ar    
  19 C19            4.0131   -10.6495     1.5254 C.ar    
  20 C20            4.3894    -9.4170     1.0227 C.ar    
  21 C21            5.2720    -8.6176     1.7264 C.ar    
  22 C22            5.7816    -9.0460     2.9354 C.ar    
  23 C23            5.9453   -10.7497     4.7490 C.ar    
  24 C24            6.8345    -9.9483     5.4623 C.ar    
  25 C25            7.3334   -10.3842     6.6731 C.ar    
  26 C26            6.9527   -11.6142     7.1785 C.ar    
  27 C27            6.0707   -12.4140     6.4744 C.ar    
  28 C28            5.5604   -11.9851     5.2658 C.ar    
  29 C29            7.5013   -12.0849     8.5008 C.3     
  30 F30            6.6577   -11.6609     9.5331 F       
  31 F31            7.5763   -13.4819     8.5039 F       
  32 F32            8.7792   -11.5489     8.6929 F       
  33 C33            1.3101    -8.9004    -0.0584 C.3     
  34 C34            0.4963    -8.6799     1.2276 C.3     
  35 C35           -0.7496    -8.5923     0.3305 C.3     
  36 C36            0.1928    -8.1485    -0.8008 C.3     
  37 O37           -1.3740    -9.8555     0.0930 O.3     
  38 C38           -2.7858    -9.7764    -0.1133 C.3     
  39 H39           -0.0664    -0.7223     2.8759 H       
  40 H40           -0.5670    -0.4488     1.1898 H       
  41 H41            1.8024    -0.1118     0.5410 H       
  42 H42            2.3030    -0.3853     2.2271 H       
  43 H43           -0.9086     2.8465     2.7597 H       
  44 H44            4.7686    -4.2231    -0.0673 H       
  45 H45            4.7024    -6.6593    -0.4429 H       
  46 H46            0.6486    -4.4188     1.1358 H       
  47 H47            0.7644    -2.5990     1.3853 H       
  48 H48            3.6303    -9.8036    -0.9339 H       
  49 H49            4.5642    -8.2958    -0.7846 H       
  50 H50            4.2220   -12.0503     3.1250 H       
  51 H51            3.3238   -11.2698     0.9717 H       
  52 H52            5.5628    -7.6563     1.3291 H       
  53 H53            6.4701    -8.4207     3.4844 H       
  54 H54            7.1329    -8.9881     5.0683 H       
  55 H55            8.0226    -9.7638     7.2268 H       
  56 H56            5.7771   -13.3736     6.8734 H       
  57 H57            4.8678   -12.6081     4.7193 H       
  58 H58            1.3982    -9.9483    -0.3451 H       
  59 H59            0.4936    -9.5412     1.8957 H       
  60 H60            0.7325    -7.7468     1.7392 H       
  61 H61           -1.4559    -7.8211     0.6382 H       
  62 H62            0.3460    -7.0702    -0.8437 H       
  63 H63           -0.0549    -8.5808    -1.7703 H       
  64 H64           -3.2584    -9.3449     0.7691 H       
  65 H65           -2.9918    -9.1479    -0.9797 H       
  66 H66           -3.1843   -10.7761    -0.2867 H       
@<TRIPOS>BOND
   1    1    2 1
   2    1    4 2
   3    1    5 1
   4    2    3 1
   5    2   39 1
   6    2   40 1
   7    3   14 1
   8    3   41 1
   9    3   42 1
  10    5   43 1
  11    6    7 1
  12    6   13 2
  13    6   14 am
  14    7    8 ar
  15    7   12 ar
  16    8    9 ar
  17    8   44 1
  18    9   10 ar
  19    9   45 1
  20   10   11 ar
  21   10   15 1
  22   11   12 ar
  23   12   46 1
  24   14   47 1
  25   15   16 1
  26   15   33 1
  27   16   20 1
  28   16   48 1
  29   16   49 1
  30   17   18 ar
  31   17   22 ar
  32   17   23 1
  33   18   19 ar
  34   18   50 1
  35   19   20 ar
  36   19   51 1
  37   20   21 ar
  38   21   22 ar
  39   21   52 1
  40   22   53 1
  41   23   24 ar
  42   23   28 ar
  43   24   25 ar
  44   24   54 1
  45   25   26 ar
  46   25   55 1
  47   26   27 ar
  48   26   29 1
  49   27   28 ar
  50   27   56 1
  51   28   57 1
  52   29   30 1
  53   29   31 1
  54   29   32 1
  55   33   34 1
  56   33   36 1
  57   33   58 1
  58   34   35 1
  59   34   59 1
  60   34   60 1
  61   35   36 1
  62   35   37 1
  63   35   61 1
  64   36   62 1
  65   36   63 1
  66   37   38 1
  67   38   64 1
  68   38   65 1
  69   38   66 1

#	End of record

