#	Name: ASD03090226
#	Creating user name:	WinNT
#	Creation time:	15. 06. 2019 20:28

#	Modifying user name:	WinNT
#	Modification time:	15. 06. 2019 20:28

#	Program:	/corina/corina34_cracker 3.40 0067  02.08.2006

@<TRIPOS>MOLECULE
ASD03090226
  42   45    0    0    0
SMALL
NO_CHARGES


@<TRIPOS>ATOM
   1 C1            -0.4067     1.4618    -1.4757 C.ar    
   2 C2            -1.5509     2.2303    -1.1914 C.ar    
   3 C3            -2.7340     1.5810    -0.8713 C.ar    
   4 C4            -2.7353     0.1836    -0.8456 C.ar    
   5 C5            -1.5567    -0.5093    -1.1402 C.ar    
   6 N6            -0.4522     0.1339    -1.4451 N.ar    
   7 C7            -3.9712    -0.5553    -0.5097 C.2     
   8 N8            -5.7658    -3.4028     0.5059 N.pl3   
   9 C9            -4.8454    -4.4010     0.8364 C.ar    
  10 C10           -3.6234    -4.0612     1.4026 C.ar    
  11 C11           -2.7162    -5.0504     1.7284 C.ar    
  12 C12           -3.0233    -6.3776     1.4916 C.ar    
  13 C13           -4.2391    -6.7194     0.9276 C.ar    
  14 C14           -5.1530    -5.7360     0.6047 C.ar    
  15 N15           -4.0422    -1.8154    -0.1279 N.2     
  16 C16           -5.3157    -2.1480     0.0906 C.2     
  17 N17           -6.0777    -1.1057    -0.1480 N.2     
  18 N18           -5.2279    -0.0566    -0.5339 N.pl3   
  19 C19           -5.6248     1.3053    -0.8997 C.3     
  20 C20           -5.7270     2.1633     0.3630 C.3     
  21 O21           -6.1143     3.4917     0.0062 O.3     
  22 C22            0.6500     2.4360    -1.7682 C.2     
  23 C23            0.0891     3.6487    -1.6438 C.2     
  24 O24           -1.2051     3.5278    -1.3047 O.3     
  25 C25           -4.5690    -8.1672     0.6705 C.3     
  26 F26           -3.4994    -8.9695     1.0820 F       
  27 F27           -5.7180    -8.5181     1.3874 F       
  28 F28           -4.7960    -8.3580    -0.6967 F       
  29 H29           -3.6303     2.1404    -0.6475 H       
  30 H30           -1.5554    -1.5892    -1.1210 H       
  31 H31           -6.7173    -3.5816     0.5651 H       
  32 H32           -3.3827    -3.0247     1.5874 H       
  33 H33           -1.7657    -4.7869     2.1683 H       
  34 H34           -2.3121    -7.1491     1.7474 H       
  35 H35           -6.1022    -6.0036     0.1646 H       
  36 H36           -4.8797     1.7332    -1.5704 H       
  37 H37           -6.5925     1.2795    -1.4007 H       
  38 H38           -6.4722     1.7354     1.0337 H       
  39 H39           -4.7594     2.1891     0.8640 H       
  40 H40           -6.1988     4.0924     0.7593 H       
  41 H41            1.6750     2.2204    -2.0313 H       
  42 H42            0.6037     4.5862    -1.7946 H       
@<TRIPOS>BOND
   1    1    2 ar
   2    1   22 1
   3    1    6 ar
   4    2    3 ar
   5    2   24 1
   6    3    4 ar
   7    3   29 1
   8    4    5 ar
   9    4    7 1
  10    5    6 ar
  11    5   30 1
  12    7   15 2
  13    7   18 1
  14    8    9 1
  15    8   16 1
  16    8   31 1
  17    9   10 ar
  18    9   14 ar
  19   10   11 ar
  20   10   32 1
  21   11   12 ar
  22   11   33 1
  23   12   13 ar
  24   12   34 1
  25   13   14 ar
  26   13   25 1
  27   14   35 1
  28   15   16 1
  29   16   17 2
  30   17   18 1
  31   18   19 1
  32   19   20 1
  33   19   36 1
  34   19   37 1
  35   20   21 1
  36   20   38 1
  37   20   39 1
  38   21   40 1
  39   22   23 2
  40   22   41 1
  41   23   24 1
  42   23   42 1
  43   25   26 1
  44   25   27 1
  45   25   28 1

#	End of record

