#	Name: ASD01140470
#	Creating user name:	WinNT
#	Creation time:	15. 06. 2019 19:00

#	Modifying user name:	WinNT
#	Modification time:	15. 06. 2019 19:00

#	Program:	/corina/corina34_cracker 3.40 0067  02.08.2006

@<TRIPOS>MOLECULE
ASD01140470
  57   60    0    0    0
SMALL
NO_CHARGES


@<TRIPOS>ATOM
   1 C1            -0.2124     1.5793     0.1607 C.3     
   2 C2            -0.2477     0.0500     0.1866 C.3     
   3 C3             0.4214    -0.4972    -1.0757 C.3     
   4 C4             1.8750    -0.0220    -1.1281 C.3     
   5 C5             1.9100     1.5070    -1.1552 C.3     
   6 C6             1.2405     2.0568     0.1062 C.3     
   7 C7             1.2718     3.5853     0.0721 C.3     
   8 C8             3.3621     1.9846    -1.2125 C.3     
   9 C9             3.3959     3.5140    -1.2429 C.3     
  10 C10            2.7312     4.0632     0.0201 C.3     
  11 C11            0.6284     5.6854     1.3269 C.3     
  12 C12            0.5415     4.1504     1.2857 C.3     
  13 C13            2.7045     5.5798    -0.0148 C.3     
  14 C14            2.0989     6.0545     1.3339 C.3     
  15 C15            4.0703     6.2746    -0.0036 C.3     
  16 C16            3.7354     7.6893     0.5431 C.3     
  17 C17            2.4272     7.5438     1.3599 C.3     
  18 O18           -0.2767    -0.0230    -2.2288 O.3     
  19 H19            1.3766     1.8666    -2.0351 H       
  20 C20            1.9898     1.5553     1.3423 C.3     
  21 C21            2.8037     5.3490     2.4943 C.3     
  22 N22            2.6368     7.9934     2.7383 N.pl3   
  23 O23            1.9594     8.8974     3.1938 O.2     
  24 O24            3.4886     7.4632     3.4290 O.2     
  25 C25            0.3853    -2.0266    -1.0502 C.3     
  26 H26           -0.7464     1.9400    -0.7184 H       
  27 H27           -0.6892     1.9688     1.0601 H       
  28 H28            0.2855    -0.3109     1.0661 H       
  29 H29           -1.2830    -0.2889     0.2251 H       
  30 H30            2.4071    -0.3822    -0.2476 H       
  31 H31            2.3528    -0.4125    -2.0266 H       
  32 H32            0.7571     3.9278    -0.8255 H       
  33 H33            3.8971     1.6268    -0.3327 H       
  34 H34            3.8382     1.5928    -2.1113 H       
  35 H35            4.4306     3.8539    -1.2861 H       
  36 H36            2.8587     3.8720    -2.1212 H       
  37 H37            3.2664     3.7094     0.9014 H       
  38 H38            0.1443     6.1080     0.4464 H       
  39 H39            0.1479     6.0598     2.2308 H       
  40 H40           -0.5063     3.8535     1.2416 H       
  41 H41            0.9886     3.7433     2.1926 H       
  42 H42            2.1083     5.9287    -0.8580 H       
  43 H43            4.7608     5.7572     0.6624 H       
  44 H44            4.4794     6.3375    -1.0119 H       
  45 H45            4.5411     8.0420     1.1868 H       
  46 H46            3.5850     8.3838    -0.2835 H       
  47 H47            1.6250     8.1155     0.8932 H       
  48 H48           -1.2065    -0.2867    -2.2617 H       
  49 H49            1.9664     0.4657     1.3641 H       
  50 H50            3.0245     1.8957     1.3029 H       
  51 H51            1.5123     1.9470     2.2404 H       
  52 H52            2.6696     4.2715     2.3996 H       
  53 H53            3.8674     5.5862     2.4715 H       
  54 H54            2.3763     5.6869     3.4383 H       
  55 H55           -0.6502    -2.3649    -1.0121 H       
  56 H56            0.8620    -2.4163    -1.9496 H       
  57 H57            0.9182    -2.3880    -0.1707 H       
@<TRIPOS>BOND
   1    1    2 1
   2    1    6 1
   3    1   26 1
   4    1   27 1
   5    2    3 1
   6    2   28 1
   7    2   29 1
   8    3    4 1
   9    3   18 1
  10    3   25 1
  11    4    5 1
  12    4   30 1
  13    4   31 1
  14    5    6 1
  15    5    8 1
  16    5   19 1
  17    6   20 1
  18    6    7 1
  19    7   10 1
  20    7   12 1
  21    7   32 1
  22    8    9 1
  23    8   33 1
  24    8   34 1
  25    9   10 1
  26    9   35 1
  27    9   36 1
  28   10   13 1
  29   10   37 1
  30   11   12 1
  31   11   14 1
  32   11   38 1
  33   11   39 1
  34   12   40 1
  35   12   41 1
  36   13   15 1
  37   13   14 1
  38   13   42 1
  39   14   21 1
  40   14   17 1
  41   15   16 1
  42   15   43 1
  43   15   44 1
  44   16   17 1
  45   16   45 1
  46   16   46 1
  47   17   22 1
  48   17   47 1
  49   18   48 1
  50   20   49 1
  51   20   50 1
  52   20   51 1
  53   21   52 1
  54   21   53 1
  55   21   54 1
  56   22   23 2
  57   22   24 2
  58   25   55 1
  59   25   56 1
  60   25   57 1

#	End of record

