#	Name: ASD02508037
#	Creating user name:	WinNT
#	Creation time:	15. 06. 2019 20:23

#	Modifying user name:	WinNT
#	Modification time:	15. 06. 2019 20:23

#	Program:	/corina/corina34_cracker 3.40 0067  02.08.2006

@<TRIPOS>MOLECULE
ASD02508037
  33   35    0    0    0
SMALL
NO_CHARGES


@<TRIPOS>ATOM
   1 C1             0.0878     1.7443     0.3857 C.ar    
   2 C2             0.0125     0.3628     0.3024 C.ar    
   3 C3             1.3292     2.3790     0.3515 C.ar    
   4 C4             2.4849     1.6227     0.2344 C.ar    
   5 C5             2.4021     0.2464     0.1523 C.ar    
   6 C6             1.1696    -0.3825     0.1855 C.ar    
   7 N7            -0.8710     2.7503     0.5016 N.am    
   8 C8            -0.2188     3.9291     0.5401 C.2     
   9 O9             1.1027     3.7119     0.4494 O.3     
  10 S10            3.8724    -0.7132     0.0035 S.o2    
  11 N11            4.3759    -1.0798     1.5379 N.am    
  12 C12            3.5455    -1.8157     2.3891 C.ar    
  13 C13            3.5212    -1.5370     3.7519 C.ar    
  14 C14            2.7395    -2.8220     1.8756 C.ar    
  15 C15            1.9199    -3.5476     2.7192 C.ar    
  16 C16            1.9013    -3.2725     4.0737 C.ar    
  17 C17            2.6990    -2.2669     4.5897 C.ar    
  18 O18            3.4901    -1.9426    -0.5979 O.2     
  19 O19            4.8594     0.1478    -0.5477 O.2     
  20 F20            4.3003    -0.5549     4.2557 F       
  21 C21           -2.3221     2.5605     0.5688 C.3     
  22 O22           -0.7460     5.0205     0.6374 O.2     
  23 H23           -0.9483    -0.1297     0.3291 H       
  24 H24            3.4489     2.1089     0.2070 H       
  25 H25            1.1125    -1.4591     0.1210 H       
  26 H26            5.2468    -0.7841     1.8462 H       
  27 H27            2.7524    -3.0377     0.8174 H       
  28 H28            1.2927    -4.3307     2.3195 H       
  29 H29            1.2594    -3.8412     4.7302 H       
  30 H30            2.6823    -2.0548     5.6485 H       
  31 H31           -2.6262     2.4486     1.6095 H       
  32 H32           -2.8223     3.4265     0.1352 H       
  33 H33           -2.5976     1.6651     0.0115 H       
@<TRIPOS>BOND
   1    1    2 ar
   2    1    3 ar
   3    1    7 1
   4    2    6 ar
   5    2   23 1
   6    3    4 ar
   7    3    9 1
   8    4    5 ar
   9    4   24 1
  10    5    6 ar
  11    5   10 1
  12    6   25 1
  13    7    8 am
  14    7   21 1
  15    8    9 1
  16    8   22 2
  17   10   11 am
  18   10   18 2
  19   10   19 2
  20   11   12 1
  21   11   26 1
  22   12   13 ar
  23   12   14 ar
  24   13   20 1
  25   13   17 ar
  26   14   15 ar
  27   14   27 1
  28   15   16 ar
  29   15   28 1
  30   16   17 ar
  31   16   29 1
  32   17   30 1
  33   21   31 1
  34   21   32 1
  35   21   33 1

#	End of record

