#	Name: ASD01883507
#	Creating user name:	WinNT
#	Creation time:	15. 06. 2019 19:46

#	Modifying user name:	WinNT
#	Modification time:	15. 06. 2019 19:46

#	Program:	/corina/corina34_cracker 3.40 0067  02.08.2006

@<TRIPOS>MOLECULE
ASD01883507
  45   47    0    0    0
SMALL
NO_CHARGES


@<TRIPOS>ATOM
   1 N1            -0.0162     1.3417     0.0094 N.am    
   2 C2             0.0021    -0.0041     0.0020 C.2     
   3 C3            -1.2162    -0.7274     0.0098 C.2     
   4 C4            -2.4259    -0.0113     0.0252 C.2     
   5 C5            -2.3786     1.3965     0.0323 C.2     
   6 C6            -1.1850     2.0323     0.0299 C.2     
   7 O7             1.0657    -0.6000    -0.0117 O.2     
   8 C8            -1.2153    -2.1594     0.0016 C.1     
   9 N9            -1.2145    -3.2953    -0.0049 N.1     
  10 C10            1.2512     2.0764     0.0013 C.3     
  11 C11            1.6787     2.3400    -1.4440 C.3     
  12 C12            3.0023     3.1073    -1.4525 C.3     
  13 C13            3.4928     3.2621    -2.8935 C.3     
  14 C14            2.7937     4.4908    -0.8334 C.3     
  15 C15           -3.7221    -0.7217     0.0332 C.ar    
  16 C16           -4.0792    -1.5144     1.1323 C.ar    
  17 C17           -5.2715    -2.1761     1.1548 C.ar    
  18 C18           -6.1525    -2.0709     0.0808 C.ar    
  19 C19           -5.8055    -1.2769    -1.0299 C.ar    
  20 C20           -4.5893    -0.5983    -1.0481 C.ar    
  21 N21           -7.3923    -2.6069    -0.1768 N.pl3   
  22 C22           -7.8389    -2.1846    -1.3996 C.2     
  23 C23           -6.9279    -1.3788    -1.9669 C.2     
  24 C24           -8.1264    -3.4988     0.7242 C.3     
  25 H25           -3.2950     1.9678     0.0441 H       
  26 H26           -1.1611     3.1120     0.0354 H       
  27 H27            1.1242     3.0258     0.5214 H       
  28 H28            2.0168     1.4860     0.5046 H       
  29 H29            1.8057     1.3906    -1.9642 H       
  30 H30            0.9131     2.9304    -1.9474 H       
  31 H31            3.7444     2.5581    -0.8731 H       
  32 H32            2.7507     3.8113    -3.4729 H       
  33 H33            4.4358     3.8087    -2.8995 H       
  34 H34            3.6414     2.2764    -3.3345 H       
  35 H35            2.4443     4.3806     0.1931 H       
  36 H36            3.7367     5.0375    -0.8395 H       
  37 H37            2.0516     5.0400    -1.4129 H       
  38 H38           -3.4031    -1.6024     1.9700 H       
  39 H39           -5.5335    -2.7841     2.0081 H       
  40 H40           -4.3183     0.0118    -1.8971 H       
  41 H41           -8.7848    -2.4593    -1.8426 H       
  42 H42           -7.0070    -0.8970    -2.9302 H       
  43 H43           -8.7524    -2.9064     1.3915 H       
  44 H44           -8.7538    -4.1707     0.1386 H       
  45 H45           -7.4191    -4.0830     1.3129 H       
@<TRIPOS>BOND
   1    1    2 am
   2    1   10 1
   3    1    6 1
   4    2    3 1
   5    2    7 2
   6    3    4 2
   7    3    8 1
   8    4    5 1
   9    4   15 1
  10    5    6 2
  11    5   25 1
  12    6   26 1
  13    8    9 3
  14   10   11 1
  15   10   27 1
  16   10   28 1
  17   11   12 1
  18   11   29 1
  19   11   30 1
  20   12   13 1
  21   12   14 1
  22   12   31 1
  23   13   32 1
  24   13   33 1
  25   13   34 1
  26   14   35 1
  27   14   36 1
  28   14   37 1
  29   15   16 ar
  30   15   20 ar
  31   16   17 ar
  32   16   38 1
  33   17   18 ar
  34   17   39 1
  35   18   19 ar
  36   18   21 1
  37   19   20 ar
  38   19   23 1
  39   20   40 1
  40   21   22 1
  41   21   24 1
  42   22   23 2
  43   22   41 1
  44   23   42 1
  45   24   43 1
  46   24   44 1
  47   24   45 1

#	End of record

