#	Name: ASD02198880
#	Creating user name:	WinNT
#	Creation time:	15. 06. 2019 20:20

#	Modifying user name:	WinNT
#	Modification time:	15. 06. 2019 20:20

#	Program:	/corina/corina34_cracker 3.40 0067  02.08.2006

@<TRIPOS>MOLECULE
ASD02198880
  52   56    0    0    0
SMALL
NO_CHARGES


@<TRIPOS>ATOM
   1 F1             3.3640     0.2891     3.1551 F       
   2 C2             0.4096     2.7437     0.4101 C.2     
   3 C3             0.5765     1.4643     0.8299 C.2     
   4 N4             1.8129     0.9315     0.9544 N.pl3   
   5 N5             2.8880     1.5783     0.6919 N.2     
   6 C6             2.8688     2.8264     0.2757 C.2     
   7 C7             1.5695     3.4969     0.1083 C.2     
   8 C8             1.9245    -0.3925     1.3925 C.ar    
   9 C9             2.7089    -0.6952     2.5014 C.ar    
  10 C10            2.8177    -2.0036     2.9331 C.ar    
  11 C11            2.1444    -3.0145     2.2603 C.ar    
  12 C12            1.3615    -2.7115     1.1534 C.ar    
  13 C13            1.2475    -1.4051     0.7242 C.ar    
  14 C14            4.1277     3.5413    -0.0171 C.2     
  15 N15            4.4587     4.1545    -1.1927 N.pl3   
  16 N16            5.7365     4.7072    -1.0405 N.2     
  17 C17            6.1670     4.4458     0.1679 C.2     
  18 C18            5.1869     3.7206     0.8454 C.2     
  19 C19            3.6627     4.2188    -2.3434 C.ar    
  20 C20            3.5559     5.4095    -3.0500 C.ar    
  21 C21            2.7702     5.4697    -4.1842 C.ar    
  22 C22            2.0903     4.3458    -4.6165 C.ar    
  23 C23            2.1943     3.1587    -3.9149 C.ar    
  24 C24            2.9833     3.0904    -2.7834 C.ar    
  25 O25            1.4950     4.6546    -0.2758 O.2     
  26 N26            2.2551    -4.3414     2.6978 N.pl3   
  27 N27            2.3352    -5.4761     1.8803 N.2     
  28 C28            2.4284    -6.5320     2.6478 C.2     
  29 C29            2.4113    -6.1123     3.9816 C.2     
  30 C30            2.3098    -4.7565     3.9915 C.2     
  31 O31            2.2621    -3.9630     5.0919 O.3     
  32 C32            2.4092    -4.6038     6.3607 C.3     
  33 F33            1.4121    -5.5734     6.5118 F       
  34 F34            3.6666    -5.2129     6.4325 F       
  35 C35            7.4995     4.8633     0.7347 C.3     
  36 H36           -0.5763     3.1721     0.3053 H       
  37 H37           -0.2892     0.8641     1.0679 H       
  38 H38            3.4265    -2.2397     3.7933 H       
  39 H39            0.8382    -3.4987     0.6308 H       
  40 H40            0.6384    -1.1707    -0.1363 H       
  41 H41            5.2497     3.3591     1.8612 H       
  42 H42            4.0864     6.2877    -2.7127 H       
  43 H43            2.6865     6.3955    -4.7340 H       
  44 H44            1.4766     4.3953    -5.5038 H       
  45 H45            1.6615     2.2828    -4.2547 H       
  46 H46            3.0641     2.1630    -2.2358 H       
  47 H47            2.5054    -7.5544     2.3085 H       
  48 H48            2.4727    -6.7515     4.8500 H       
  49 H49            2.3186    -3.8627     7.1548 H       
  50 H50            7.4023     5.8393     1.2103 H       
  51 H51            7.8262     4.1306     1.4726 H       
  52 H52            8.2338     4.9221    -0.0687 H       
@<TRIPOS>BOND
   1    1    9 1
   2    2    3 2
   3    2    7 1
   4    2   36 1
   5    3    4 1
   6    3   37 1
   7    4    5 1
   8    4    8 1
   9    5    6 2
  10    6    7 1
  11    6   14 1
  12    7   25 2
  13    8    9 ar
  14    8   13 ar
  15    9   10 ar
  16   10   11 ar
  17   10   38 1
  18   11   12 ar
  19   11   26 1
  20   12   13 ar
  21   12   39 1
  22   13   40 1
  23   14   15 1
  24   14   18 2
  25   15   16 1
  26   15   19 1
  27   16   17 2
  28   17   18 1
  29   17   35 1
  30   18   41 1
  31   19   20 ar
  32   19   24 ar
  33   20   21 ar
  34   20   42 1
  35   21   22 ar
  36   21   43 1
  37   22   23 ar
  38   22   44 1
  39   23   24 ar
  40   23   45 1
  41   24   46 1
  42   26   27 1
  43   26   30 1
  44   27   28 2
  45   28   29 1
  46   28   47 1
  47   29   30 2
  48   29   48 1
  49   30   31 1
  50   31   32 1
  51   32   33 1
  52   32   34 1
  53   32   49 1
  54   35   50 1
  55   35   51 1
  56   35   52 1

#	End of record

