#	Name: ASD03730677
#	Creating user name:	WinNT
#	Creation time:	15. 06. 2019 20:44

#	Modifying user name:	WinNT
#	Modification time:	15. 06. 2019 20:44

#	Program:	/corina/corina34_cracker 3.40 0067  02.08.2006

@<TRIPOS>MOLECULE
ASD03730677
  55   61    0    0    0
SMALL
NO_CHARGES


@<TRIPOS>ATOM
   1 O1            -0.0292     0.7546    -0.0218 O.3     
   2 C2            -0.0539    -0.5790    -0.3039 C.ar    
   3 C3             1.1704    -1.0088    -0.8108 C.ar    
   4 C4             2.0738     0.1942    -0.8296 C.3     
   5 C5             1.3379     1.1993     0.0674 C.3     
   6 O6            -1.7736    -3.8761    -0.4420 O.3     
   7 C7            -0.9051    -2.8297    -0.5132 C.ar    
   8 C8             0.3207    -3.2299    -1.0307 C.ar    
   9 C9             0.2115    -4.7097    -1.3414 C.3     
  10 C10           -1.3192    -4.9311    -1.3063 C.3     
  11 C11            1.3507    -2.3260    -1.1746 C.ar    
  12 C12           -1.0848    -1.4983    -0.1557 C.ar    
  13 N13            4.3117     0.2089    -1.2927 N.am    
  14 C14            3.4481    -0.1165    -0.3101 C.2     
  15 C15            2.2847     0.7306    -2.2142 C.ar    
  16 C16            1.4286     1.1919    -3.2046 C.ar    
  17 C17            1.9498     1.6371    -4.4191 C.ar    
  18 C18            3.3147     1.6158    -4.6268 C.ar    
  19 C19            4.1653     1.1570    -3.6417 C.ar    
  20 C20            3.6592     0.7092    -2.4226 C.ar    
  21 O21            3.7263    -0.5707     0.7796 O.2     
  22 C22            5.7650     0.0560    -1.1881 C.3     
  23 O23            6.2552    -2.4203    -0.9235 O.3     
  24 C24            6.1625    -1.3128    -1.6775 C.2     
  25 C25            6.4843    -1.6327    -2.9439 C.2     
  26 C26            6.7885    -3.0133    -2.9529 C.2     
  27 C27            6.6344    -3.4546    -1.6916 C.2     
  28 C28            6.8506    -4.8696    -1.2203 C.3     
  29 F29            8.1822    -5.0303    -0.8225 F       
  30 F30            6.0052    -5.1349    -0.1377 F       
  31 F31            6.5651    -5.7573    -2.2633 F       
  32 C32           -2.6815     1.2455    -2.5530 C.ar    
  33 N33           -1.9023     1.9731    -1.7775 N.ar    
  34 C34           -0.5917     1.9848    -1.9499 C.ar    
  35 C35           -0.0370     1.2108    -2.9721 C.ar    
  36 C36           -0.9001     0.4554    -3.7696 C.ar    
  37 N37           -2.1991     0.5014    -3.5285 N.ar    
  38 H38            1.4415     2.2126    -0.3207 H       
  39 H39            1.6986     1.1382     1.0942 H       
  40 H40            0.6147    -4.9311    -2.3296 H       
  41 H41            0.7091    -5.3061    -0.5766 H       
  42 H42           -1.5586    -5.9069    -0.8836 H       
  43 H43           -1.7476    -4.8253    -2.3030 H       
  44 H44            2.3006    -2.6501    -1.5735 H       
  45 H45           -2.0357    -1.1754     0.2417 H       
  46 H46            1.2888     1.9966    -5.1938 H       
  47 H47            3.7194     1.9602    -5.5670 H       
  48 H48            5.2310     1.1452    -3.8165 H       
  49 H49            6.2550     0.8159    -1.7967 H       
  50 H50            6.0686     0.1722    -0.1478 H       
  51 H51            6.5056    -0.9634    -3.7912 H       
  52 H52            7.0869    -3.6010    -3.8084 H       
  53 H53           -3.7477     1.2560    -2.3811 H       
  54 H54            0.0403     2.5837    -1.3108 H       
  55 H55           -0.5123    -0.1566    -4.5705 H       
@<TRIPOS>BOND
   1    1    2 1
   2    1    5 1
   3    2    3 ar
   4    2   12 ar
   5    3    4 1
   6    3   11 ar
   7    4    5 1
   8    4   14 1
   9    4   15 1
  10    5   38 1
  11    5   39 1
  12    6    7 1
  13    6   10 1
  14    7    8 ar
  15    7   12 ar
  16    8    9 1
  17    8   11 ar
  18    9   10 1
  19    9   40 1
  20    9   41 1
  21   10   42 1
  22   10   43 1
  23   11   44 1
  24   12   45 1
  25   13   14 am
  26   13   20 1
  27   13   22 1
  28   14   21 2
  29   15   16 ar
  30   15   20 ar
  31   16   17 ar
  32   16   35 1
  33   17   18 ar
  34   17   46 1
  35   18   19 ar
  36   18   47 1
  37   19   20 ar
  38   19   48 1
  39   22   24 1
  40   22   49 1
  41   22   50 1
  42   23   24 1
  43   23   27 1
  44   24   25 2
  45   25   26 1
  46   25   51 1
  47   26   27 2
  48   26   52 1
  49   27   28 1
  50   28   29 1
  51   28   30 1
  52   28   31 1
  53   32   33 ar
  54   32   37 ar
  55   32   53 1
  56   33   34 ar
  57   34   35 ar
  58   34   54 1
  59   35   36 ar
  60   36   37 ar
  61   36   55 1

#	End of record

