#	Name: ASD03331013
#	Creating user name:	WinNT
#	Creation time:	15. 06. 2019 20:38

#	Modifying user name:	WinNT
#	Modification time:	15. 06. 2019 20:38

#	Program:	/corina/corina34_cracker 3.40 0067  02.08.2006

@<TRIPOS>MOLECULE
ASD03331013
  57   59    0    0    0
SMALL
NO_CHARGES


@<TRIPOS>ATOM
   1 N1            -2.1966     2.3477    -0.7676 N.pl3   
   2 C2            -1.6395     1.1076    -0.7821 C.2     
   3 C3            -0.1862     0.8012    -1.0339 C.3     
   4 N4             0.6445     1.6972    -0.2143 N.3     
   5 C5             0.9366     2.9449    -0.9226 C.3     
   6 C6            -0.2331     3.3537    -1.8134 C.3     
   7 C7            -1.4743     3.6093    -0.9542 C.3     
   8 C8            -3.5327     2.1927    -0.5375 C.2     
   9 N9            -3.7880     0.9131    -0.3976 N.2     
  10 C10           -2.6396     0.2157    -0.5402 C.2     
  11 C11           -2.4953    -1.2480    -0.4500 C.2     
  12 O12           -1.4027    -1.7615    -0.5975 O.2     
  13 N13           -3.5740    -2.0177    -0.2042 N.am    
  14 C14            1.8828     1.0285     0.2067 C.3     
  15 C15           -3.0146    -3.8578     1.3066 C.3     
  16 C16           -3.4305    -3.4729    -0.1146 C.3     
  17 C17           -4.7657    -4.1388    -0.4533 C.3     
  18 C18           -5.8653    -3.5596     0.4390 C.3     
  19 C19           -5.1087    -3.8763    -1.9210 C.3     
  20 C20           -4.6581    -5.6465    -0.2165 C.3     
  21 O21           -4.0422    -3.4765     2.2234 O.3     
  22 C22           -4.5271     3.2849    -0.4582 C.ar    
  23 C23           -5.8837     3.0107    -0.6373 C.ar    
  24 C24           -6.8078     4.0341    -0.5618 C.ar    
  25 C25           -6.3882     5.3328    -0.3082 C.ar    
  26 C26           -5.0425     5.6082    -0.1304 C.ar    
  27 C27           -4.1124     4.5913    -0.1984 C.ar    
  28 F28           -7.2952     6.3313    -0.2350 F       
  29 F29           -8.1215     3.7712    -0.7353 F       
  30 H30            0.0198    -0.2346    -0.7643 H       
  31 H31            0.0414     0.9565    -2.0885 H       
  32 H32            1.1254     3.7341    -0.1949 H       
  33 H33            1.8251     2.8072    -1.5389 H       
  34 H34            0.0254     4.2628    -2.3563 H       
  35 H35           -0.4430     2.5551    -2.5249 H       
  36 H36           -2.1219     4.3293    -1.4546 H       
  37 H37           -1.1713     4.0027     0.0161 H       
  38 H38           -4.4454    -1.6081    -0.0866 H       
  39 H39            2.4186     0.6693    -0.6720 H       
  40 H40            2.5099     1.7344     0.7513 H       
  41 H41            1.6388     0.1855     0.8532 H       
  42 H42           -2.8608    -4.9355     1.3608 H       
  43 H43           -2.0882    -3.3451     1.5654 H       
  44 H44           -2.6688    -3.8069    -0.8192 H       
  45 H45           -5.7927    -2.4720     0.4455 H       
  46 H46           -6.8405    -3.8562     0.0527 H       
  47 H47           -5.7463    -3.9378     1.4543 H       
  48 H48           -4.3253    -4.2890    -2.5567 H       
  49 H49           -6.0599    -4.3507    -2.1623 H       
  50 H50           -5.1854    -2.8022    -2.0898 H       
  51 H51           -4.4137    -5.8336     0.8292 H       
  52 H52           -5.6093    -6.1210    -0.4578 H       
  53 H53           -3.8747    -6.0592    -0.8521 H       
  54 H54           -3.8458    -3.6906     3.1457 H       
  55 H55           -6.2100     2.0004    -0.8350 H       
  56 H56           -4.7210     6.6202     0.0663 H       
  57 H57           -3.0640     4.8072    -0.0551 H       
@<TRIPOS>BOND
   1    1    2 1
   2    1    7 1
   3    1    8 1
   4    2    3 1
   5    2   10 2
   6    3    4 1
   7    3   30 1
   8    3   31 1
   9    4    5 1
  10    4   14 1
  11    5    6 1
  12    5   32 1
  13    5   33 1
  14    6    7 1
  15    6   34 1
  16    6   35 1
  17    7   36 1
  18    7   37 1
  19    8    9 2
  20    8   22 1
  21    9   10 1
  22   10   11 1
  23   11   12 2
  24   11   13 am
  25   13   16 1
  26   13   38 1
  27   14   39 1
  28   14   40 1
  29   14   41 1
  30   15   21 1
  31   15   16 1
  32   15   42 1
  33   15   43 1
  34   16   17 1
  35   16   44 1
  36   17   18 1
  37   17   19 1
  38   17   20 1
  39   18   45 1
  40   18   46 1
  41   18   47 1
  42   19   48 1
  43   19   49 1
  44   19   50 1
  45   20   51 1
  46   20   52 1
  47   20   53 1
  48   21   54 1
  49   22   23 ar
  50   22   27 ar
  51   23   24 ar
  52   23   55 1
  53   24   25 ar
  54   24   29 1
  55   25   26 ar
  56   25   28 1
  57   26   27 ar
  58   26   56 1
  59   27   57 1

#	End of record

