#	Name: ASD03180063
#	Creating user name:	WinNT
#	Creation time:	15. 06. 2019 20:33

#	Modifying user name:	WinNT
#	Modification time:	15. 06. 2019 20:33

#	Program:	/corina/corina34_cracker 3.40 0067  02.08.2006

@<TRIPOS>MOLECULE
ASD03180063
  37   39    0    0    0
SMALL
NO_CHARGES


@<TRIPOS>ATOM
   1 C1             0.8972    -0.3039     0.2383 C.ar    
   2 C2             0.0403     0.1517    -0.7724 C.ar    
   3 C3             0.3878     1.2827    -1.5228 C.ar    
   4 C4             1.5592     1.9360    -1.2666 C.ar    
   5 C5             2.4084     1.4793    -0.2611 C.ar    
   6 C6             2.0665     0.3554     0.4878 C.ar    
   7 N7             3.6000     2.1472    -0.0040 N.pl3   
   8 N8             4.7263     4.2476     0.0191 N.2     
   9 C9             4.5815     5.5682    -0.0823 C.2     
  10 C10            3.6502     3.5305    -0.0824 C.2     
  11 S11            2.2633     4.5852    -0.3359 S.3     
  12 C12            3.3199     5.9940    -0.2798 C.2     
  13 C13            5.7259     6.5003     0.0157 C.2     
  14 S14            5.6475     8.2566    -0.1024 S.3     
  15 C15            7.3394     8.3572     0.1207 C.2     
  16 N16            7.8451     7.1783     0.2613 N.2     
  17 C17            7.0162     6.1575     0.2175 C.2     
  18 C18            8.1286     9.6407     0.1486 C.3     
  19 C19            7.4686     4.7285     0.3739 C.3     
  20 C20           -1.2174    -0.5540    -1.0444 C.2     
  21 C21           -2.1961     0.0083    -2.0429 C.3     
  22 O22           -1.4690    -1.5900    -0.4656 O.2     
  23 H23            0.6310    -1.1727     0.8221 H       
  24 H24           -0.2696     1.6370    -2.3030 H       
  25 H25            1.8278     2.8079    -1.8446 H       
  26 H26            2.7274     0.0051     1.2669 H       
  27 H27            4.3964     1.6454     0.2302 H       
  28 H28            3.0087     7.0228    -0.3854 H       
  29 H29            8.1811    10.0127     1.1718 H       
  30 H30            9.1364     9.4557    -0.2229 H       
  31 H31            7.6390    10.3821    -0.4829 H       
  32 H32            7.7188     4.3175    -0.6042 H       
  33 H33            8.3472     4.6940     1.0181 H       
  34 H34            6.6670     4.1405     0.8208 H       
  35 H35           -1.7623     0.8857    -2.5224 H       
  36 H36           -2.4185    -0.7458    -2.7979 H       
  37 H37           -3.1155     0.2915    -1.5305 H       
@<TRIPOS>BOND
   1    1    2 ar
   2    1    6 ar
   3    1   23 1
   4    2    3 ar
   5    2   20 1
   6    3    4 ar
   7    3   24 1
   8    4    5 ar
   9    4   25 1
  10    5    6 ar
  11    5    7 1
  12    6   26 1
  13    7   10 1
  14    7   27 1
  15    8   10 2
  16    8    9 1
  17    9   12 2
  18    9   13 1
  19   10   11 1
  20   11   12 1
  21   12   28 1
  22   13   14 1
  23   13   17 2
  24   14   15 1
  25   15   16 2
  26   15   18 1
  27   16   17 1
  28   17   19 1
  29   18   29 1
  30   18   30 1
  31   18   31 1
  32   19   32 1
  33   19   33 1
  34   19   34 1
  35   20   21 1
  36   20   22 2
  37   21   35 1
  38   21   36 1
  39   21   37 1

#	End of record

