#	Name: ASD00310193
#	Creating user name:	WinNT
#	Creation time:	15. 06. 2019 18:33

#	Modifying user name:	WinNT
#	Modification time:	15. 06. 2019 18:33

#	Program:	/corina/corina34_cracker 3.40 0067  02.08.2006

@<TRIPOS>MOLECULE
ASD00310193
  56   59    0    0    0
SMALL
NO_CHARGES


@<TRIPOS>ATOM
   1 C1             5.5261     5.0486    -2.5125 C.ar    
   2 C2             6.0248     4.9130    -1.2295 C.ar    
   3 C3             6.3168     3.6587    -0.7298 C.ar    
   4 C4             6.1096     2.5345    -1.5159 C.ar    
   5 C5             5.6094     2.6729    -2.8025 C.ar    
   6 C6             5.3187     3.9292    -3.2980 C.ar    
   7 O7             6.3967     1.2995    -1.0265 O.3     
   8 C8             7.1844    -0.9415    -1.4710 C.3     
   9 C9             6.2736     0.1991    -1.9297 C.3     
  10 C10            4.8221    -0.2841    -1.9502 C.3     
  11 O11            6.7304    -1.4355    -0.2092 O.3     
  12 C12            7.4628    -2.5650     0.2703 C.3     
  13 C13            6.9033    -5.8590    -2.3911 C.ar    
  14 C14           11.6163    -1.5880     0.4727 C.ar    
  15 C15            6.0578    -3.6247     4.1627 C.ar    
  16 C16            5.9667    -4.8436    -2.3417 C.ar    
  17 C17            6.1475    -3.7778    -1.4802 C.ar    
  18 C18            7.2653    -3.7272    -0.6685 C.ar    
  19 C19            8.2022    -4.7424    -0.7183 C.ar    
  20 C20            8.0211    -5.8084    -1.5794 C.ar    
  21 C21           10.8265    -1.4865     1.6027 C.ar    
  22 C22            9.4824    -1.8023     1.5371 C.ar    
  23 C23            8.9280    -2.2202     0.3417 C.ar    
  24 C24            9.7179    -2.3222    -0.7882 C.ar    
  25 C25           11.0620    -2.0059    -0.7227 C.ar    
  26 C26            5.5405    -2.5159     3.5193 C.ar    
  27 C27            5.9954    -2.1728     2.2599 C.ar    
  28 C28            6.9672    -2.9387     1.6436 C.ar    
  29 C29            7.4841    -4.0478     2.2868 C.ar    
  30 C30            7.0296    -4.3906     3.5464 C.ar    
  31 I31            5.0762     6.9517    -3.2641 I       
  32 H32            6.1863     5.7885    -0.6180 H       
  33 H33            6.7065     3.5533     0.2719 H       
  34 H34            5.4476     1.7991    -3.4163 H       
  35 H35            4.9292     4.0374    -4.2995 H       
  36 H36            7.1584    -1.7455    -2.2066 H       
  37 H37            8.2054    -0.5734    -1.3710 H       
  38 H38            6.5651     0.5164    -2.9310 H       
  39 H39            4.5306    -0.6015    -0.9490 H       
  40 H40            4.1732     0.5285    -2.2770 H       
  41 H41            4.7282    -1.1235    -2.6392 H       
  42 H42            6.7598    -6.6939    -3.0610 H       
  43 H43           12.6655    -1.3370     0.5229 H       
  44 H44            5.7056    -3.8902     5.1485 H       
  45 H45            5.0936    -4.8830    -2.9762 H       
  46 H46            5.4161    -2.9841    -1.4421 H       
  47 H47            9.0757    -4.7026    -0.0843 H       
  48 H48            8.7531    -6.6016    -1.6183 H       
  49 H49           11.2597    -1.1604     2.5367 H       
  50 H50            8.8655    -1.7237     2.4201 H       
  51 H51            9.2849    -2.6490    -1.7220 H       
  52 H52           11.6791    -2.0856    -1.6055 H       
  53 H53            4.7810    -1.9177     4.0007 H       
  54 H54            5.5908    -1.3069     1.7569 H       
  55 H55            8.2431    -4.6464     1.8051 H       
  56 H56            7.4334    -5.2571     4.0489 H       
@<TRIPOS>BOND
   1    1    2 ar
   2    1    6 ar
   3    1   31 1
   4    2    3 ar
   5    2   32 1
   6    3    4 ar
   7    3   33 1
   8    4    5 ar
   9    4    7 1
  10    5    6 ar
  11    5   34 1
  12    6   35 1
  13    7    9 1
  14    8    9 1
  15    8   11 1
  16    8   36 1
  17    8   37 1
  18    9   10 1
  19    9   38 1
  20   10   39 1
  21   10   40 1
  22   10   41 1
  23   11   12 1
  24   12   18 1
  25   12   23 1
  26   12   28 1
  27   13   16 ar
  28   13   20 ar
  29   13   42 1
  30   14   21 ar
  31   14   25 ar
  32   14   43 1
  33   15   26 ar
  34   15   30 ar
  35   15   44 1
  36   16   17 ar
  37   16   45 1
  38   17   18 ar
  39   17   46 1
  40   18   19 ar
  41   19   20 ar
  42   19   47 1
  43   20   48 1
  44   21   22 ar
  45   21   49 1
  46   22   23 ar
  47   22   50 1
  48   23   24 ar
  49   24   25 ar
  50   24   51 1
  51   25   52 1
  52   26   27 ar
  53   26   53 1
  54   27   28 ar
  55   27   54 1
  56   28   29 ar
  57   29   30 ar
  58   29   55 1
  59   30   56 1

#	End of record

