#	Name: ASD01410601
#	Creating user name:	WinNT
#	Creation time:	15. 06. 2019 19:18

#	Modifying user name:	WinNT
#	Modification time:	15. 06. 2019 19:18

#	Program:	/corina/corina34_cracker 3.40 0067  02.08.2006

@<TRIPOS>MOLECULE
ASD01410601
  75   78    0    0    0
SMALL
NO_CHARGES


@<TRIPOS>ATOM
   1 C1            -0.8207     2.0994    -1.9012 C.ar    
   2 O2            -1.3699     2.0350    -0.6622 O.3     
   3 C3            -2.2587     1.0377    -0.4091 C.ar    
   4 C4            -1.8046    -0.2603    -0.2084 C.ar    
   5 C5            -2.6983    -1.2800     0.0497 C.ar    
   6 C6            -4.0593    -1.0151     0.1102 C.ar    
   7 C7            -4.5243     0.2934    -0.0915 C.ar    
   8 C8            -3.6113     1.3195    -0.3465 C.ar    
   9 N9            -4.9615    -2.0456     0.3700 N.am    
  10 C10           -5.5604    -2.6903    -0.6508 C.2     
  11 C11           -5.2586    -2.4278     1.7527 C.3     
  12 O12           -6.4028    -3.5331    -0.4250 O.2     
  13 C13           -5.1833    -2.3640    -2.0729 C.3     
  14 C14           -6.3544    -2.6955    -3.0000 C.3     
  15 C15           -5.9716    -2.3642    -4.4438 C.3     
  16 C16           -4.7498    -3.1908    -4.8499 C.3     
  17 C17           -3.5787    -2.8593    -3.9229 C.3     
  18 C18           -3.9615    -3.1906    -2.4791 C.3     
  19 C19           -4.3669    -2.8595    -6.2937 C.3     
  20 C20           -5.6908    -1.1905     2.5422 C.3     
  21 C21           -4.3184    -3.4306     3.8391 C.3     
  22 C22           -4.0080    -3.0314     2.3950 C.3     
  23 C23           -6.0011    -1.5896     3.9863 C.3     
  24 C24            0.0272     3.1486    -2.2221 C.ar    
  25 C25            0.5829     3.2021    -3.4954 C.ar    
  26 C26            0.2619     2.1923    -4.4012 C.ar    
  27 C27           -0.5892     1.1813    -4.0083 C.ar    
  28 N28           -1.0957     1.1570    -2.7894 N.ar    
  29 O29            1.4171     4.2132    -3.8481 O.3     
  30 C30            1.9416     4.1878    -5.1771 C.3     
  31 C31           -4.7505    -2.1933     4.6285 C.3     
  32 O32           -5.0403    -2.5660     5.9773 O.3     
  33 C33           -4.7942    -1.5315     6.9319 C.3     
  34 C34           -5.9678     0.5846    -0.0293 C.2     
  35 O35           -6.7665    -0.3239     0.0851 O.2     
  36 O36           -6.4018     1.8585    -0.0991 O.3     
  37 C37            0.3415     4.2158    -1.2055 C.3     
  38 F38            0.2844     3.6666     0.0799 F       
  39 F39            1.6250     4.7202    -1.4406 F       
  40 F40           -0.5933     5.2512    -1.3122 F       
  41 H41           -0.7467    -0.4724    -0.2550 H       
  42 H42           -2.3377    -2.2862     0.2046 H       
  43 H43           -3.9615     2.3292    -0.5024 H       
  44 H44           -6.0628    -3.1635     1.7616 H       
  45 H45           -4.9466    -1.3029    -2.1517 H       
  46 H46           -6.5911    -3.7566    -2.9212 H       
  47 H47           -7.2248    -2.1067    -2.7106 H       
  48 H48           -6.8059    -2.6004    -5.1043 H       
  49 H49           -5.7349    -1.3032    -4.5226 H       
  50 H50           -4.9865    -4.2519    -4.7712 H       
  51 H51           -2.7083    -3.4481    -4.2122 H       
  52 H52           -3.3420    -1.7982    -4.0017 H       
  53 H53           -3.1272    -2.9544    -1.8186 H       
  54 H54           -4.1982    -4.2517    -2.4003 H       
  55 H55           -4.1303    -1.7984    -6.3725 H       
  56 H56           -3.4965    -3.4483    -6.5831 H       
  57 H57           -5.2013    -3.0957    -6.9542 H       
  58 H58           -4.8866    -0.4547     2.5334 H       
  59 H59           -6.5817    -0.7604     2.0847 H       
  60 H60           -5.1225    -4.1663     3.8479 H       
  61 H61           -3.4274    -3.8606     4.2966 H       
  62 H62           -3.7002    -3.9129     1.8326 H       
  63 H63           -3.2039    -2.2957     2.3862 H       
  64 H64           -6.3089    -0.7081     4.5487 H       
  65 H65           -6.8052    -2.3253     3.9951 H       
  66 H66            0.6749     2.2019    -5.3991 H       
  67 H67           -0.8418     0.3964    -4.7058 H       
  68 H68            2.5132     3.2715    -5.3247 H       
  69 H69            1.1201     4.2229    -5.8927 H       
  70 H70            2.5916     5.0498    -5.3277 H       
  71 H71           -3.9463    -1.4575     4.6197 H       
  72 H72           -3.7427    -1.2465     6.8958 H       
  73 H73           -5.4135    -0.6658     6.6973 H       
  74 H74           -5.0385    -1.8932     7.9307 H       
  75 H75           -7.3574     1.9998    -0.0541 H       
@<TRIPOS>BOND
   1    1    2 1
   2    1   24 ar
   3    1   28 ar
   4    2    3 1
   5    3    4 ar
   6    3    8 ar
   7    4    5 ar
   8    4   41 1
   9    5    6 ar
  10    5   42 1
  11    6    7 ar
  12    6    9 1
  13    7    8 ar
  14    7   34 1
  15    8   43 1
  16    9   10 am
  17    9   11 1
  18   10   12 2
  19   10   13 1
  20   11   20 1
  21   11   22 1
  22   11   44 1
  23   13   14 1
  24   13   18 1
  25   13   45 1
  26   14   15 1
  27   14   46 1
  28   14   47 1
  29   15   16 1
  30   15   48 1
  31   15   49 1
  32   16   17 1
  33   16   19 1
  34   16   50 1
  35   17   18 1
  36   17   51 1
  37   17   52 1
  38   18   53 1
  39   18   54 1
  40   19   55 1
  41   19   56 1
  42   19   57 1
  43   20   23 1
  44   20   58 1
  45   20   59 1
  46   21   22 1
  47   21   31 1
  48   21   60 1
  49   21   61 1
  50   22   62 1
  51   22   63 1
  52   23   31 1
  53   23   64 1
  54   23   65 1
  55   24   25 ar
  56   24   37 1
  57   25   26 ar
  58   25   29 1
  59   26   27 ar
  60   26   66 1
  61   27   28 ar
  62   27   67 1
  63   29   30 1
  64   30   68 1
  65   30   69 1
  66   30   70 1
  67   31   32 1
  68   31   71 1
  69   32   33 1
  70   33   72 1
  71   33   73 1
  72   33   74 1
  73   34   35 2
  74   34   36 1
  75   36   75 1
  76   37   38 1
  77   37   39 1
  78   37   40 1

#	End of record

