#	Name: ASD01915911
#	Creating user name:	WinNT
#	Creation time:	15. 06. 2019 20:06

#	Modifying user name:	WinNT
#	Modification time:	15. 06. 2019 20:06

#	Program:	/corina/corina34_cracker 3.40 0067  02.08.2006

@<TRIPOS>MOLECULE
ASD01915911
  37   39    0    0    0
SMALL
NO_CHARGES


@<TRIPOS>ATOM
   1 C1            -0.4101     1.7398     0.1050 C.ar    
   2 C2            -0.5427     0.3896     0.3737 C.ar    
   3 N3             0.5005    -0.3405     0.7070 N.ar    
   4 C4             1.7184     0.1811     0.7999 C.ar    
   5 C5             1.9316     1.5321     0.5451 C.ar    
   6 C6             0.8479     2.3308     0.1897 C.ar    
   7 C7            -1.9019    -0.2552     0.2840 C.3     
   8 O8             1.0135     3.6533    -0.0675 O.3     
   9 C9             2.2651     4.1720     0.0388 C.ar    
  10 C10            3.1958     3.9764    -0.9713 C.ar    
  11 N11            4.4111     4.4778    -0.8734 N.ar    
  12 C12            4.7907     5.1790     0.1766 C.ar    
  13 C13            3.9190     5.4164     1.2249 C.ar    
  14 C14            2.6294     4.9118     1.1595 C.ar    
  15 C15            2.8601    -0.6835     1.1788 C.2     
  16 N16            2.6603    -1.9930     1.4274 N.am    
  17 O17            3.9767    -0.2120     1.2654 O.2     
  18 C18            3.7466    -2.8275     1.6804 C.ar    
  19 C19            3.5456    -4.1953     1.8205 C.ar    
  20 C20            4.6330    -5.0149     2.0718 C.ar    
  21 C21            5.8889    -4.4359     2.1748 C.ar    
  22 C22            6.0174    -3.0654     2.0243 C.ar    
  23 N23            4.9618    -2.3103     1.7797 N.ar    
  24 F24            7.2379    -2.4946     2.1233 F       
  25 Cl25           4.4321     6.3404     2.6021 Cl      
  26 H26           -1.2721     2.3285    -0.1719 H       
  27 H27            2.9225     1.9548     0.6218 H       
  28 H28           -2.0628    -0.6243    -0.7289 H       
  29 H29           -1.9567    -1.0866     0.9867 H       
  30 H30           -2.6692     0.4791     0.5294 H       
  31 H31            2.9219     3.4068    -1.8471 H       
  32 H32            5.7953     5.5731     0.2193 H       
  33 H33            1.9275     5.0813     1.9627 H       
  34 H34            1.7601    -2.3543     1.4302 H       
  35 H35            2.5536    -4.6137     1.7348 H       
  36 H36            4.5058    -6.0813     2.1855 H       
  37 H37            6.7574    -5.0473     2.3705 H       
@<TRIPOS>BOND
   1    1    2 ar
   2    1    6 ar
   3    1   26 1
   4    2    3 ar
   5    2    7 1
   6    3    4 ar
   7    4    5 ar
   8    4   15 1
   9    5    6 ar
  10    5   27 1
  11    6    8 1
  12    7   28 1
  13    7   29 1
  14    7   30 1
  15    8    9 1
  16    9   10 ar
  17    9   14 ar
  18   10   11 ar
  19   10   31 1
  20   11   12 ar
  21   12   13 ar
  22   12   32 1
  23   13   14 ar
  24   13   25 1
  25   14   33 1
  26   15   16 am
  27   15   17 2
  28   16   18 1
  29   16   34 1
  30   18   19 ar
  31   18   23 ar
  32   19   20 ar
  33   19   35 1
  34   20   21 ar
  35   20   36 1
  36   21   22 ar
  37   21   37 1
  38   22   23 ar
  39   22   24 1

#	End of record

