#	Name: ASD02030772
#	Creating user name:	WinNT
#	Creation time:	15. 06. 2019 20:16

#	Modifying user name:	WinNT
#	Modification time:	15. 06. 2019 20:16

#	Program:	/corina/corina34_cracker 3.40 0067  02.08.2006

@<TRIPOS>MOLECULE
ASD02030772
  41   44    0    0    0
SMALL
NO_CHARGES


@<TRIPOS>ATOM
   1 C1            -0.0107     1.0796     0.1116 C.2     
   2 C2             0.4655     6.1239     1.0207 C.3     
   3 C3             1.1867     1.8145     0.1876 C.2     
   4 C4             3.4892     1.8277     0.4301 C.2     
   5 C5             3.5064     3.2057     0.3365 C.2     
   6 C6             2.2960     3.8879     0.1669 C.2     
   7 C7            -0.0349     3.8263    -0.0801 C.2     
   8 C8            -0.0537     5.3299    -0.1797 C.3     
   9 C9            -1.1909     1.7380    -0.0638 C.2     
  10 C10           -2.4961     3.8733    -0.3481 C.3     
  11 C11           -1.1949     3.1366    -0.1605 C.2     
  12 N12            2.3415     1.1724     0.3539 N.2     
  13 O13            2.2770     5.1060     0.0858 O.2     
  14 N14            1.1505     3.1775     0.0894 N.am    
  15 C15           -1.0342     6.0852     0.7198 C.3     
  16 C16           -1.6504     7.3073     0.1780 C.1     
  17 N17           -2.1260     8.2504    -0.2402 N.1     
  18 C18            4.7780     1.0697     0.6185 C.3     
  19 N19            4.9902     0.8143     2.0454 N.pl3   
  20 C20            5.6425     1.6219     2.9082 C.2     
  21 C21            5.6192     1.0287     4.1259 C.2     
  22 C22            4.9293    -0.1815     4.0014 C.2     
  23 N23            4.5467    -0.3081     2.7566 N.2     
  24 C24            4.6659    -1.1665     5.1111 C.3     
  25 F25            5.7016    -1.0999     6.0492 F       
  26 F26            3.4523    -0.8545     5.7332 F       
  27 F27            4.5993    -2.4594     4.5809 F       
  28 Cl28           6.3795     3.1464     2.5259 Cl      
  29 H29            0.0059     0.0024     0.1872 H       
  30 H30            0.8206     5.5588     1.8824 H       
  31 H31            0.9957     7.0543     0.8174 H       
  32 H32            4.4382     3.7482     0.3977 H       
  33 H33            0.1353     5.7377    -1.1727 H       
  34 H34           -2.1169     1.1859    -0.1282 H       
  35 H35           -2.6522     4.0706    -1.4087 H       
  36 H36           -3.3163     3.2650     0.0329 H       
  37 H37           -2.4608     4.8173     0.1957 H       
  38 H38           -1.6656     5.4946     1.3836 H       
  39 H39            4.7232     0.1214     0.0839 H       
  40 H40            5.6070     1.6597     0.2278 H       
  41 H41            6.0561     1.4210     5.0323 H       
@<TRIPOS>BOND
   1    1   29 1
   2    1    3 1
   3    1    9 2
   4    2    8 1
   5    2   15 1
   6    2   30 1
   7    2   31 1
   8    3   12 2
   9    3   14 1
  10    4   12 1
  11    4   18 1
  12    4    5 2
  13    5   32 1
  14    5    6 1
  15    6   14 am
  16    6   13 2
  17    7   11 2
  18    7   14 1
  19    7    8 1
  20    8   15 1
  21    8   33 1
  22    9   34 1
  23    9   11 1
  24   10   11 1
  25   10   35 1
  26   10   36 1
  27   10   37 1
  28   15   16 1
  29   15   38 1
  30   16   17 3
  31   18   19 1
  32   18   39 1
  33   18   40 1
  34   19   23 1
  35   19   20 1
  36   20   21 2
  37   20   28 1
  38   21   22 1
  39   21   41 1
  40   22   24 1
  41   22   23 2
  42   24   26 1
  43   24   25 1
  44   24   27 1

#	End of record

