#	Name: ASD08170514
#	Creating user name:	WinNT
#	Creation time:	15. 06. 2019 21:17

#	Modifying user name:	WinNT
#	Modification time:	15. 06. 2019 21:17

#	Program:	/corina/corina34_cracker 3.40 0067  02.08.2006

@<TRIPOS>MOLECULE
ASD08170514
  61   64    0    0    0
SMALL
NO_CHARGES


@<TRIPOS>ATOM
   1 N1             2.5476    -3.3144     2.2563 N.am    
   2 C2             2.3070    -4.3080     1.3782 C.2     
   3 N3             3.3305    -5.0297     0.8801 N.am    
   4 C4             3.0823    -6.0551    -0.0260 C.2     
   5 S5             4.2681    -7.0594    -0.7469 S.3     
   6 C6             2.9909    -7.9064    -1.6205 C.2     
   7 C7             3.1798    -9.0536    -2.5793 C.3     
   8 C8             3.3715    -8.5080    -3.9958 C.3     
   9 C9             3.8065    -9.0554    -6.7477 C.3     
  10 C10            4.0123   -10.1010    -7.8455 C.3     
  11 C11            4.1848    -9.4086    -9.1728 C.2     
  12 S12            2.8963    -8.9854   -10.3008 S.3     
  13 C13            4.0672    -8.3155   -11.3567 C.2     
  14 N14            3.8044    -7.7221   -12.5867 N.am    
  15 C15            4.8171    -7.2301   -13.3276 C.2     
  16 N16            4.5624    -6.6549   -14.5196 N.am    
  17 N17            1.9123    -6.4136    -0.4618 N.2     
  18 N18            1.8617    -7.3655    -1.2895 N.2     
  19 N19            5.3051    -9.0123    -9.6877 N.2     
  20 N20            5.2410    -8.4533   -10.8179 N.2     
  21 O21            5.9603    -7.3050   -12.9206 O.2     
  22 O22            1.1666    -4.5534     1.0352 O.2     
  23 S23            3.5988    -9.8889    -5.1500 S.3     
  24 C24            5.6202    -6.2430   -15.3379 C.ar    
  25 C25            1.4982    -2.4996     2.6957 C.ar    
  26 C26            1.6366    -1.1179     2.6798 C.ar    
  27 C27            6.6565    -5.4861   -14.8072 C.ar    
  28 C28            0.5988    -0.3164     3.1137 C.ar    
  29 C29           -0.5769    -0.8885     3.5639 C.ar    
  30 C30           -0.7176    -2.2640     3.5814 C.ar    
  31 C31            0.3142    -3.0708     3.1431 C.ar    
  32 C32            5.6387    -6.5950   -16.6811 C.ar    
  33 C33            6.6843    -6.1872   -17.4860 C.ar    
  34 C34            7.7121    -5.4292   -16.9557 C.ar    
  35 C35            7.6993    -5.0815   -15.6173 C.ar    
  36 N36            3.8149    -3.1062     2.7218 N.3     
  37 N37            3.2718    -6.4742   -14.9289 N.3     
  38 H38            4.2403    -4.8340     1.1537 H       
  39 H39            4.0593    -9.6284    -2.2893 H       
  40 H40            2.3004    -9.6971    -2.5537 H       
  41 H41            2.4920    -7.9331    -4.2859 H       
  42 H42            4.2508    -7.8645    -4.0215 H       
  43 H43            4.6750    -8.3982    -6.7045 H       
  44 H44            2.9161    -8.4668    -6.9689 H       
  45 H45            4.9027   -10.6896    -7.6243 H       
  46 H46            3.1438   -10.7582    -7.8887 H       
  47 H47            2.8923    -7.6623   -12.9113 H       
  48 H48            2.5548    -0.6705     2.3289 H       
  49 H49            6.6469    -5.2139   -13.7621 H       
  50 H50            0.7057     0.7582     3.1016 H       
  51 H51           -1.3868    -0.2596     3.9030 H       
  52 H52           -1.6368    -2.7078     3.9343 H       
  53 H53            0.2036    -4.1450     3.1566 H       
  54 H54            4.8364    -7.1873   -17.0958 H       
  55 H55            6.6995    -6.4610   -18.5306 H       
  56 H56            8.5288    -5.1119   -17.5871 H       
  57 H57            8.5033    -4.4891   -15.2062 H       
  58 H58            3.8542    -2.2872     3.3098 H       
  59 H59            4.1586    -3.9191     3.2108 H       
  60 H60            3.2363    -5.9628   -15.7980 H       
  61 H61            2.7909    -7.3576   -15.0093 H       
@<TRIPOS>BOND
   1    1    2 am
   2    1   36 1
   3    1   25 1
   4    2    3 am
   5    2   22 2
   6    3    4 1
   7    3   38 1
   8    4    5 1
   9    4   17 2
  10    5    6 1
  11    6    7 1
  12    6   18 2
  13    7    8 1
  14    7   39 1
  15    7   40 1
  16    8   23 1
  17    8   41 1
  18    8   42 1
  19    9   10 1
  20    9   23 1
  21    9   43 1
  22    9   44 1
  23   10   11 1
  24   10   45 1
  25   10   46 1
  26   11   12 1
  27   11   19 2
  28   12   13 1
  29   13   14 1
  30   13   20 2
  31   14   15 am
  32   14   47 1
  33   15   16 am
  34   15   21 2
  35   16   24 1
  36   16   37 1
  37   17   18 1
  38   19   20 1
  39   24   27 ar
  40   24   32 ar
  41   25   26 ar
  42   25   31 ar
  43   26   28 ar
  44   26   48 1
  45   27   35 ar
  46   27   49 1
  47   28   29 ar
  48   28   50 1
  49   29   30 ar
  50   29   51 1
  51   30   31 ar
  52   30   52 1
  53   31   53 1
  54   32   33 ar
  55   32   54 1
  56   33   34 ar
  57   33   55 1
  58   34   35 ar
  59   34   56 1
  60   35   57 1
  61   36   58 1
  62   36   59 1
  63   37   60 1
  64   37   61 1

#	End of record

