#	Name: ASD01150654
#	Creating user name:	WinNT
#	Creation time:	15. 06. 2019 19:04

#	Modifying user name:	WinNT
#	Modification time:	15. 06. 2019 19:04

#	Program:	/corina/corina34_cracker 3.40 0067  02.08.2006

@<TRIPOS>MOLECULE
ASD01150654
  48   50    0    0    0
SMALL
NO_CHARGES


@<TRIPOS>ATOM
   1 C1             1.9279     1.4480     0.9782 C.ar    
   2 C2             1.9573     0.0674     0.9747 C.ar    
   3 C3             0.5416     0.0381    -0.9631 C.ar    
   4 C4             0.5087     1.4186    -0.9628 C.ar    
   5 C5             1.2028     2.1286     0.0085 C.ar    
   6 N6             1.1712     3.5281     0.0105 N.am    
   7 C7            -0.0100     4.1645    -0.0785 C.2     
   8 N8            -0.0772     5.5088    -0.0790 N.am    
   9 C9             1.0519     6.2420     0.0103 C.2     
  10 C10            2.3469     5.5521     0.1079 C.2     
  11 N11            2.3692     4.2452     0.1109 N.2     
  12 O12            0.9993     7.4578     0.0096 O.2     
  13 C13           -1.3775     6.1765    -0.1770 C.3     
  14 O14           -1.0347     3.5145    -0.1602 O.2     
  15 C15           -1.9328     6.4005     1.2059 C.ar    
  16 O16            3.5016     6.2620     0.1990 O.3     
  17 C17            4.7166     5.5155     0.2903 C.3     
  18 C18            1.2649    -0.6385     0.0050 C.ar    
  19 C19           -1.6432     7.5692     1.8852 C.ar    
  20 C20           -2.1513     7.7783     3.1542 C.ar    
  21 C21           -2.9503     6.8186     3.7465 C.ar    
  22 C22           -3.2424     5.6441     3.0658 C.ar    
  23 C23           -2.7355     5.4400     1.7913 C.ar    
  24 F24            1.2954    -1.9892     0.0031 F       
  25 Cl25          -3.5877     7.0810     5.3398 Cl      
  26 O26           -4.0279     4.6984     3.6456 O.3     
  27 C27           -4.3929     3.5756     2.8406 C.3     
  28 C28           -3.2923     2.5155     2.9148 C.3     
  29 C29           -5.7064     2.9840     3.3561 C.3     
  30 H30            2.4646     1.9980     1.7370 H       
  31 H31            2.5210    -0.4622     1.7284 H       
  32 H32            0.0018    -0.5143    -1.7180 H       
  33 H33           -0.0551     1.9459    -1.7181 H       
  34 H34           -1.2563     7.1361    -0.6797 H       
  35 H35           -2.0647     5.5517    -0.7476 H       
  36 H36            4.6897     4.8848     1.1788 H       
  37 H37            4.8264     4.8903    -0.5959 H       
  38 H38            5.5607     6.2020     0.3574 H       
  39 H39           -1.0187     8.3200     1.4241 H       
  40 H40           -1.9233     8.6920     3.6830 H       
  41 H41           -2.9614     4.5274     1.2597 H       
  42 H42           -4.5198     3.8959     1.8065 H       
  43 H43           -2.3565     2.9369     2.5476 H       
  44 H44           -3.1654     2.1952     3.9490 H       
  45 H45           -3.5707     1.6590     2.3008 H       
  46 H46           -6.4906     3.7393     3.3032 H       
  47 H47           -5.9849     2.1275     2.7421 H       
  48 H48           -5.5796     2.6637     4.3902 H       
@<TRIPOS>BOND
   1    1    2 ar
   2    1    5 ar
   3    1   30 1
   4    2   18 ar
   5    2   31 1
   6    3    4 ar
   7    3   18 ar
   8    3   32 1
   9    4    5 ar
  10    4   33 1
  11    5    6 1
  12    6    7 am
  13    6   11 1
  14    7    8 am
  15    7   14 2
  16    8    9 am
  17    8   13 1
  18    9   10 1
  19    9   12 2
  20   10   11 2
  21   10   16 1
  22   13   15 1
  23   13   34 1
  24   13   35 1
  25   15   19 ar
  26   15   23 ar
  27   16   17 1
  28   17   36 1
  29   17   37 1
  30   17   38 1
  31   18   24 1
  32   19   20 ar
  33   19   39 1
  34   20   21 ar
  35   20   40 1
  36   21   22 ar
  37   21   25 1
  38   22   23 ar
  39   22   26 1
  40   23   41 1
  41   26   27 1
  42   27   28 1
  43   27   29 1
  44   27   42 1
  45   28   43 1
  46   28   44 1
  47   28   45 1
  48   29   46 1
  49   29   47 1
  50   29   48 1

#	End of record

