#	Name: ASD02440082
#	Creating user name:	WinNT
#	Creation time:	15. 06. 2019 20:21

#	Modifying user name:	WinNT
#	Modification time:	15. 06. 2019 20:21

#	Program:	/corina/corina34_cracker 3.40 0067  02.08.2006

@<TRIPOS>MOLECULE
ASD02440082
  65   69    0    0    0
SMALL
NO_CHARGES


@<TRIPOS>ATOM
   1 N1             0.0436     1.4846     0.6611 N.am    
   2 C2             0.0488     0.1278     0.8324 C.2     
   3 S3             1.7188    -0.4112     0.5865 S.3     
   4 C4             2.3516     1.2139     0.2610 C.2     
   5 C5             1.1810     2.0933     0.3697 C.2     
   6 N6            -0.9848    -0.6298     1.1231 N.2     
   7 C7            -1.1996     2.2487     0.7918 C.3     
   8 C8            -1.3717     2.6867     2.2235 C.ar    
   9 O9             1.2521     3.2966     0.2031 O.2     
  10 C10            3.6301     1.5652    -0.0242 C.2     
  11 C11            4.7052     0.5670     0.0706 C.ar    
  12 C12            5.9060     0.7595    -0.6214 C.ar    
  13 C13            6.9118    -0.1796    -0.5288 C.ar    
  14 C14            6.7380    -1.3123     0.2456 C.ar    
  15 C15            5.5497    -1.5136     0.9365 C.ar    
  16 C16            4.5347    -0.5767     0.8576 C.ar    
  17 C17           -2.2047     2.2662     4.4289 C.ar    
  18 C18           -2.0431     1.8712     3.1172 C.ar    
  19 C19           -0.8528     3.9000     2.6395 C.ar    
  20 C20           -1.0067     4.3072     3.9485 C.ar    
  21 C21           -1.6881     3.4917     4.8543 C.ar    
  22 C22           -1.8577     3.9216     6.2574 C.2     
  23 O23           -2.4476     3.2083     7.0441 O.2     
  24 O24           -1.3581     5.1045     6.6646 O.3     
  25 O25            5.3862    -2.6294     1.6951 O.3     
  26 C26            6.4770    -3.5516     1.7361 C.3     
  27 C27            6.1105    -4.7354     2.6333 C.3     
  28 C28            7.2608    -5.7080     2.6766 C.ar    
  29 C29            7.3390    -6.7278     1.7467 C.ar    
  30 C30            8.2408    -5.5769     3.6427 C.ar    
  31 C31            9.2960    -6.4691     3.6824 C.ar    
  32 C32            9.3709    -7.4926     2.7563 C.ar    
  33 C33            8.3942    -7.6199     1.7863 C.ar    
  34 C34           -0.8243    -1.9813     1.2646 C.ar    
  35 C35           -1.4187    -2.6500     2.3372 C.ar    
  36 C36           -1.2526    -4.0125     2.4735 C.ar    
  37 C37           -0.4993    -4.7167     1.5508 C.ar    
  38 C38            0.0929    -4.0607     0.4861 C.ar    
  39 C39           -0.0699    -2.6995     0.3338 C.ar    
  40 H40           -1.1566     3.1258     0.1462 H       
  41 H41           -2.0430     1.6231     0.4994 H       
  42 H42            3.8584     2.5782    -0.3210 H       
  43 H43            6.0450     1.6424    -1.2277 H       
  44 H44            7.8383    -0.0303    -1.0633 H       
  45 H45            7.5296    -2.0438     0.3133 H       
  46 H46            3.6105    -0.7324     1.3943 H       
  47 H47           -2.7295     1.6291     5.1253 H       
  48 H48           -2.4418     0.9234     2.7869 H       
  49 H49           -0.3257     4.5296     1.9379 H       
  50 H50           -0.6009     5.2543     4.2721 H       
  51 H51           -1.4940     5.3427     7.5919 H       
  52 H52            6.6873    -3.9107     0.7287 H       
  53 H53            7.3598    -3.0525     2.1356 H       
  54 H54            5.9002    -4.3764     3.6408 H       
  55 H55            5.2276    -5.2345     2.2338 H       
  56 H56            6.5756    -6.8278     0.9894 H       
  57 H57            8.1822    -4.7773     4.3663 H       
  58 H58           10.0620    -6.3662     4.4368 H       
  59 H59           10.1955    -8.1894     2.7870 H       
  60 H60            8.4552    -8.4169     1.0600 H       
  61 H61           -2.0067    -2.1016     3.0582 H       
  62 H62           -1.7114    -4.5309     3.3025 H       
  63 H63           -0.3725    -5.7834     1.6625 H       
  64 H64            0.6801    -4.6164    -0.2299 H       
  65 H65            0.3925    -2.1887    -0.4979 H       
@<TRIPOS>BOND
   1    1    2 1
   2    1    5 am
   3    1    7 1
   4    2    3 1
   5    2    6 2
   6    3    4 1
   7    4    5 1
   8    4   10 2
   9    5    9 2
  10    6   34 1
  11    7    8 1
  12    7   40 1
  13    7   41 1
  14    8   19 ar
  15    8   18 ar
  16   10   11 1
  17   10   42 1
  18   11   12 ar
  19   11   16 ar
  20   12   13 ar
  21   12   43 1
  22   13   14 ar
  23   13   44 1
  24   14   15 ar
  25   14   45 1
  26   15   16 ar
  27   15   25 1
  28   16   46 1
  29   17   18 ar
  30   17   21 ar
  31   17   47 1
  32   18   48 1
  33   19   20 ar
  34   19   49 1
  35   20   21 ar
  36   20   50 1
  37   21   22 1
  38   22   23 2
  39   22   24 1
  40   24   51 1
  41   25   26 1
  42   26   27 1
  43   26   52 1
  44   26   53 1
  45   27   28 1
  46   27   54 1
  47   27   55 1
  48   28   30 ar
  49   28   29 ar
  50   29   33 ar
  51   29   56 1
  52   30   31 ar
  53   30   57 1
  54   31   32 ar
  55   31   58 1
  56   32   33 ar
  57   32   59 1
  58   33   60 1
  59   34   35 ar
  60   34   39 ar
  61   35   36 ar
  62   35   61 1
  63   36   37 ar
  64   36   62 1
  65   37   38 ar
  66   37   63 1
  67   38   39 ar
  68   38   64 1
  69   39   65 1

#	End of record

