#	Name: ASD03110021
#	Creating user name:	WinNT
#	Creation time:	15. 06. 2019 20:33

#	Modifying user name:	WinNT
#	Modification time:	15. 06. 2019 20:33

#	Program:	/corina/corina34_cracker 3.40 0067  02.08.2006

@<TRIPOS>MOLECULE
ASD03110021
  41   44    0    0    0
SMALL
NO_CHARGES


@<TRIPOS>ATOM
   1 C1            -0.0167     1.3837     0.0096 C.ar    
   2 C2             0.0021    -0.0041     0.0020 C.ar    
   3 C3             1.2033    -0.6765    -0.0126 C.ar    
   4 C4             2.4013     0.0355    -0.0198 C.ar    
   5 C5             2.3914     1.4362    -0.0127 C.ar    
   6 C6             1.1424     2.0967     0.0024 C.ar    
   7 S7             4.0773    -0.5072    -0.0377 S.3     
   8 C8             4.6287     1.1626    -0.0342 C.2     
   9 N9             3.6194     1.9666    -0.0211 N.2     
  10 C10            6.0454     1.5847    -0.0444 C.ar    
  11 C11            6.3692     2.9434    -0.0406 C.ar    
  12 C12            7.0599     0.6249    -0.0522 C.ar    
  13 C13            8.3792     1.0176    -0.0617 C.ar    
  14 C14            8.7033     2.3767    -0.0636 C.ar    
  15 C15            7.6882     3.3368    -0.0501 C.ar    
  16 C16           10.1190     2.7986    -0.0733 C.2     
  17 O17           11.0024     1.9629    -0.0796 O.2     
  18 N18           10.4315     4.1096    -0.0751 N.am    
  19 N19           11.7742     4.5097    -0.0843 N.2     
  20 C20           12.0751     5.7723    -0.0860 C.2     
  21 C21           13.4881     6.1934    -0.0957 C.ar    
  22 C22           13.8151     7.5515    -0.0976 C.ar    
  23 C23           14.5054     5.2354    -0.0971 C.ar    
  24 C24           15.8250     5.6347    -0.1057 C.ar    
  25 C25           16.1440     6.9835    -0.1124 C.ar    
  26 C26           15.1392     7.9392    -0.1062 C.ar    
  27 F27           17.4389     7.3687    -0.1203 F       
  28 Br28          15.5845     9.7770    -0.1160 Br      
  29 H29           -0.9630     1.9042     0.0169 H       
  30 H30           -0.9259    -0.5566     0.0079 H       
  31 H31            1.2173    -1.7564    -0.0182 H       
  32 H32            1.1074     3.1761     0.0078 H       
  33 H33            5.5845     3.6854    -0.0305 H       
  34 H34            6.8093    -0.4257    -0.0504 H       
  35 H35            9.1637     0.2753    -0.0673 H       
  36 H36            7.9384     4.3874    -0.0519 H       
  37 H37            9.7269     4.7762    -0.0700 H       
  38 H38           11.2905     6.5145    -0.0804 H       
  39 H39           13.0330     8.2964    -0.0927 H       
  40 H40           14.2584     4.1841    -0.0912 H       
  41 H41           16.6118     4.8949    -0.1068 H       
@<TRIPOS>BOND
   1    1    2 ar
   2    1    6 ar
   3    1   29 1
   4    2    3 ar
   5    2   30 1
   6    3    4 ar
   7    3   31 1
   8    4    5 ar
   9    4    7 1
  10    5    6 ar
  11    5    9 1
  12    6   32 1
  13    7    8 1
  14    8    9 2
  15    8   10 1
  16   10   11 ar
  17   10   12 ar
  18   11   15 ar
  19   11   33 1
  20   12   13 ar
  21   12   34 1
  22   13   14 ar
  23   13   35 1
  24   14   15 ar
  25   14   16 1
  26   15   36 1
  27   16   17 2
  28   16   18 am
  29   18   19 1
  30   18   37 1
  31   19   20 2
  32   20   21 1
  33   20   38 1
  34   21   22 ar
  35   21   23 ar
  36   22   26 ar
  37   22   39 1
  38   23   24 ar
  39   23   40 1
  40   24   25 ar
  41   24   41 1
  42   25   26 ar
  43   25   27 1
  44   26   28 1

#	End of record

