#	Name: ASD03320124
#	Creating user name:	WinNT
#	Creation time:	15. 06. 2019 20:36

#	Modifying user name:	WinNT
#	Modification time:	15. 06. 2019 20:36

#	Program:	/corina/corina34_cracker 3.40 0067  02.08.2006

@<TRIPOS>MOLECULE
ASD03320124
  49   52    0    0    0
SMALL
NO_CHARGES


@<TRIPOS>ATOM
   1 C1            -0.0181     1.4709     0.0147 C.2     
   2 C2             0.0015    -0.0045     0.0117 C.ar    
   3 C3             1.2192    -0.6978     0.0011 C.ar    
   4 C4             1.1850    -2.0893    -0.0008 C.ar    
   5 C5            -0.0614    -2.7401     0.0077 C.ar    
   6 N6            -1.1881    -2.0440     0.0171 N.ar    
   7 C7            -1.1932    -0.7273     0.0251 C.ar    
   8 O8             1.0269     2.0928     0.0081 O.2     
   9 N9            -1.1942     2.1292     0.0193 N.am    
  10 N10            2.6869    -4.0136     0.6892 N.pl3   
  11 N11            3.9922    -4.4244     0.3902 N.2     
  12 C12            4.5137    -3.5706    -0.4537 C.2     
  13 C13            3.5680    -2.5826    -0.7286 C.2     
  14 C14            2.4404    -2.8713    -0.0123 C.2     
  15 N15           -0.1114    -4.1219     0.0059 N.3     
  16 C16           -1.5060    -4.6002     0.0159 C.3     
  17 C17           -1.6858    -5.5111    -1.2168 C.3     
  18 C18           -0.2340    -5.9523    -1.5400 C.3     
  19 C19            0.5675    -4.6750    -1.1854 C.3     
  20 O20           -2.4978    -6.6421    -0.8951 O.3     
  21 C21           -1.2149     3.5252     0.1327 C.ar    
  22 C22           -2.1836     4.2618    -0.5366 C.ar    
  23 C23           -2.2041     5.6376    -0.4254 C.ar    
  24 C24           -1.2557     6.2854     0.3566 C.ar    
  25 C25           -0.2869     5.5481     1.0264 C.ar    
  26 C26           -0.2703     4.1720     0.9189 C.ar    
  27 S27           -1.2811     8.0415     0.4983 S.3     
  28 C28            0.1210     8.3825     1.5977 C.3     
  29 F29           -0.0816     7.7411     2.8244 F       
  30 F30            1.2992     7.9073     1.0119 F       
  31 Cl31           0.2570    10.1605     1.8645 Cl      
  32 H32            2.1594    -0.1664    -0.0056 H       
  33 H33           -2.1349    -0.1988     0.0378 H       
  34 H34           -2.0262     1.6363    -0.0560 H       
  35 H35            2.0680    -4.4637     1.2853 H       
  36 H36            5.5097    -3.6223    -0.8681 H       
  37 H37            3.7030    -1.7391    -1.3895 H       
  38 H38           -1.6971    -5.1672     0.9270 H       
  39 H39           -2.1891    -3.7530    -0.0463 H       
  40 H40           -2.1134    -4.9527    -2.0495 H       
  41 H41            0.0685    -6.7901    -0.9118 H       
  42 H42           -0.1271    -6.1996    -2.5962 H       
  43 H43            0.5293    -3.9621    -2.0091 H       
  44 H44            1.6010    -4.9287    -0.9496 H       
  45 H45           -2.6416    -7.2465    -1.6360 H       
  46 H46           -2.9207     3.7582    -1.1443 H       
  47 H47           -2.9570     6.2103    -0.9464 H       
  48 H48            0.4506     6.0514     1.6340 H       
  49 H49            0.4800     3.5985     1.4430 H       
@<TRIPOS>BOND
   1    1    2 1
   2    1    8 2
   3    1    9 am
   4    2    3 ar
   5    2    7 ar
   6    3    4 ar
   7    3   32 1
   8    4    5 ar
   9    4   14 1
  10    5    6 ar
  11    5   15 1
  12    6    7 ar
  13    7   33 1
  14    9   21 1
  15    9   34 1
  16   10   11 1
  17   10   14 1
  18   10   35 1
  19   11   12 2
  20   12   13 1
  21   12   36 1
  22   13   14 2
  23   13   37 1
  24   15   16 1
  25   15   19 1
  26   16   17 1
  27   16   38 1
  28   16   39 1
  29   17   18 1
  30   17   20 1
  31   17   40 1
  32   18   19 1
  33   18   41 1
  34   18   42 1
  35   19   43 1
  36   19   44 1
  37   20   45 1
  38   21   22 ar
  39   21   26 ar
  40   22   23 ar
  41   22   46 1
  42   23   24 ar
  43   23   47 1
  44   24   25 ar
  45   24   27 1
  46   25   26 ar
  47   25   48 1
  48   26   49 1
  49   27   28 1
  50   28   29 1
  51   28   30 1
  52   28   31 1

#	End of record

