#	Name: ASD01411019
#	Creating user name:	WinNT
#	Creation time:	15. 06. 2019 19:19

#	Modifying user name:	WinNT
#	Modification time:	15. 06. 2019 19:19

#	Program:	/corina/corina34_cracker 3.40 0067  02.08.2006

@<TRIPOS>MOLECULE
ASD01411019
  73   78    0    0    0
SMALL
NO_CHARGES


@<TRIPOS>ATOM
   1 C1            -0.4339     3.3547     1.2025 C.ar    
   2 C2            -0.0082     2.0188     1.3274 C.ar    
   3 C3            -0.8672     0.9783     0.9933 C.ar    
   4 C4            -2.1272     1.2467     0.5423 C.ar    
   5 C5            -2.5678     2.5702     0.4113 C.ar    
   6 C6            -1.7240     3.6250     0.7461 C.ar    
   7 N7             0.5988     4.1431     1.5944 N.2     
   8 C8             1.6149     3.3923     1.9464 C.2     
   9 N9             1.2877     2.0703     1.7985 N.pl3   
  10 C10            2.1528     0.9239     2.0877 C.3     
  11 C11            2.5951     0.9752     3.5514 C.3     
  12 C12            3.4986    -0.2220     3.8535 C.3     
  13 C13            2.7285    -1.5192     3.5986 C.3     
  14 C14            2.2861    -1.5705     2.1348 C.3     
  15 C15            1.3827    -0.3733     1.8328 C.3     
  16 C16           -3.9331     2.8466    -0.0788 C.2     
  17 O17           -4.3172     3.9944    -0.1932 O.2     
  18 N18           -4.7534     1.8264    -0.3994 N.am    
  19 C19           -6.1411     2.0955    -0.7843 C.3     
  20 C20           -6.2503     2.9451    -2.0241 C.2     
  21 O21           -7.1826     3.7097    -2.1551 O.2     
  22 C22            2.9159     3.8961     2.4293 C.2     
  23 C23           -7.0255     0.8379    -0.8194 C.3     
  24 C24           -8.1368     1.6977    -0.1943 C.3     
  25 C25           -7.0187     2.5873     0.3789 C.3     
  26 N26           -5.3120     2.8553    -2.9874 N.am    
  27 C27           -5.4512     3.5866    -4.1668 C.ar    
  28 C28           -5.0604     3.0275    -5.3799 C.ar    
  29 C29           -5.1955     3.7455    -6.5461 C.ar    
  30 C30           -5.7273     5.0402    -6.5109 C.ar    
  31 C31           -6.1195     5.5984    -5.2882 C.ar    
  32 C32           -5.9856     4.8710    -4.1277 C.ar    
  33 C33           -5.8731     5.8110    -7.7534 C.2     
  34 C34           -6.3865     7.0602    -7.7171 C.2     
  35 C35            3.0613     5.1283     3.0732 C.2     
  36 C36            4.3133     5.4009     3.4320 C.2     
  37 S37            5.3705     4.0802     2.9569 S.3     
  38 C38            4.0648     3.2054     2.2925 C.2     
  39 C39           -6.5271     7.8039    -8.9159 C.2     
  40 O40           -6.1855     7.3173    -9.9772 O.2     
  41 O41           -7.0400     9.0514    -8.8797 O.3     
  42 H42           -0.5366    -0.0452     1.0906 H       
  43 H43           -2.7891     0.4332     0.2842 H       
  44 H44           -2.0627     4.6455     0.6454 H       
  45 H45            3.0300     0.9586     1.4416 H       
  46 H46            3.1438     1.8994     3.7330 H       
  47 H47            1.7179     0.9405     4.1975 H       
  48 H48            4.3758    -0.1873     3.2074 H       
  49 H49            3.8137    -0.1855     4.8963 H       
  50 H50            3.3721    -2.3722     3.8137 H       
  51 H51            1.8512    -1.5539     4.2446 H       
  52 H52            3.1634    -1.5358     1.4887 H       
  53 H53            1.7375    -2.4947     1.9532 H       
  54 H54            0.5054    -0.4080     2.4788 H       
  55 H55            1.0675    -0.4098     0.7900 H       
  56 H56           -4.4250     0.9140    -0.3753 H       
  57 H57           -7.2550     0.4935    -1.8278 H       
  58 H58           -6.6735     0.0382    -0.1678 H       
  59 H59           -8.7625     2.2042    -0.9292 H       
  60 H60           -8.7154     1.1764     0.5683 H       
  61 H61           -6.6642     2.2664     1.3584 H       
  62 H62           -7.2441     3.6529     0.3375 H       
  63 H63           -4.5399     2.2821    -2.8604 H       
  64 H64           -4.6503     2.0288    -5.4061 H       
  65 H65           -4.8913     3.3111    -7.4869 H       
  66 H66           -6.5299     6.5969    -5.2563 H       
  67 H67           -6.2882     5.3006    -3.1841 H       
  68 H68           -5.5697     5.3790    -8.6956 H       
  69 H69           -6.6899     7.4922    -6.7749 H       
  70 H70            2.2344     5.7968     3.2619 H       
  71 H71            4.6320     6.2996     3.9390 H       
  72 H72            4.1483     2.2361     1.8235 H       
  73 H73           -7.0968     9.4786    -9.7454 H       
@<TRIPOS>BOND
   1    1    2 ar
   2    1    7 1
   3    1    6 ar
   4    2    3 ar
   5    2    9 1
   6    3    4 ar
   7    3   42 1
   8    4    5 ar
   9    4   43 1
  10    5    6 ar
  11    5   16 1
  12    6   44 1
  13    7    8 2
  14    8    9 1
  15    8   22 1
  16    9   10 1
  17   10   11 1
  18   10   15 1
  19   10   45 1
  20   11   12 1
  21   11   46 1
  22   11   47 1
  23   12   13 1
  24   12   48 1
  25   12   49 1
  26   13   14 1
  27   13   50 1
  28   13   51 1
  29   14   15 1
  30   14   52 1
  31   14   53 1
  32   15   54 1
  33   15   55 1
  34   16   17 2
  35   16   18 am
  36   18   19 1
  37   18   56 1
  38   19   20 1
  39   19   23 1
  40   19   25 1
  41   20   21 2
  42   20   26 am
  43   22   35 1
  44   22   38 2
  45   23   24 1
  46   23   57 1
  47   23   58 1
  48   24   25 1
  49   24   59 1
  50   24   60 1
  51   25   61 1
  52   25   62 1
  53   26   27 1
  54   26   63 1
  55   27   28 ar
  56   27   32 ar
  57   28   29 ar
  58   28   64 1
  59   29   30 ar
  60   29   65 1
  61   30   31 ar
  62   30   33 1
  63   31   32 ar
  64   31   66 1
  65   32   67 1
  66   33   34 2
  67   33   68 1
  68   34   39 1
  69   34   69 1
  70   35   36 2
  71   35   70 1
  72   36   37 1
  73   36   71 1
  74   37   38 1
  75   38   72 1
  76   39   40 2
  77   39   41 1
  78   41   73 1

#	End of record

