#	Name: ASD01840338
#	Creating user name:	WinNT
#	Creation time:	15. 06. 2019 19:37

#	Modifying user name:	WinNT
#	Modification time:	15. 06. 2019 19:37

#	Program:	/corina/corina34_cracker 3.40 0067  02.08.2006

@<TRIPOS>MOLECULE
ASD01840338
  46   49    0    0    0
SMALL
NO_CHARGES


@<TRIPOS>ATOM
   1 C1             2.1750     2.1341    -1.9668 C.3     
   2 C2             1.8923     0.6823    -1.6784 C.ar    
   3 N3             1.7046    -0.1549    -2.6779 N.ar    
   4 C4             1.4542    -1.4379    -2.4780 C.ar    
   5 C5             1.2100    -2.5617    -3.4550 C.3     
   6 N6             0.9835    -3.7860    -2.6806 N.am    
   7 C7             1.0868    -3.4190    -1.2645 C.3     
   8 C8             1.3813    -1.9434    -1.1956 C.ar    
   9 C9             1.5731    -1.0943    -0.1161 C.ar    
  10 C10            1.5008    -1.6142     1.2965 C.3     
  11 C11            1.8389     0.2440    -0.3673 C.ar    
  12 Cl12           2.0946     1.3528     0.9437 Cl      
  13 C13            0.7285    -5.0134    -3.1755 C.2     
  14 O14            0.5587    -5.9480    -2.4214 O.2     
  15 C15            0.6542    -5.2245    -4.6658 C.3     
  16 C16            0.3549    -6.6962    -4.9581 C.3     
  17 C17           -1.1481    -7.0253    -5.0050 C.3     
  18 N18           -0.8275    -7.8606    -6.1834 N.3     
  19 C19            0.3779    -7.0473    -6.4567 C.3     
  20 C20           -1.7824    -7.6944    -7.1896 C.ar    
  21 C21           -2.3235    -6.4378    -7.4497 C.ar    
  22 C22           -3.2672    -6.3235    -8.4575 C.ar    
  23 C23           -3.6382    -7.4508    -9.1662 C.ar    
  24 N24           -3.1069    -8.6271    -8.8955 N.ar    
  25 C25           -2.2021    -8.7792    -7.9494 C.ar    
  26 H26            3.2505     2.2829    -2.0626 H       
  27 H27            1.6842     2.4222    -2.8965 H       
  28 H28            1.7947     2.7476    -1.1500 H       
  29 H29            0.3314    -2.3400    -4.0607 H       
  30 H30            2.0809    -2.6874    -4.0983 H       
  31 H31            0.1456    -3.6321    -0.7578 H       
  32 H32            1.8954    -3.9796    -0.7954 H       
  33 H33            2.4911    -1.9394     1.6151 H       
  34 H34            1.1482    -0.8225     1.9575 H       
  35 H35            0.8107    -2.4569     1.3385 H       
  36 H36           -0.1387    -4.6029    -5.0818 H       
  37 H37            1.6067    -4.9504    -5.1195 H       
  38 H38            0.9362    -7.3791    -4.3386 H       
  39 H39           -1.4998    -7.5955    -4.1451 H       
  40 H40           -1.7788    -6.1664    -5.2340 H       
  41 H41            0.1935    -6.1948    -7.1104 H       
  42 H42            1.2454    -7.6350    -6.7568 H       
  43 H43           -2.0153    -5.5738    -6.8797 H       
  44 H44           -3.7083    -5.3646    -8.6865 H       
  45 H45           -4.3738    -7.3671    -9.9526 H       
  46 H46           -1.7859    -9.7576    -7.7600 H       
@<TRIPOS>BOND
   1    1    2 1
   2    1   26 1
   3    1   27 1
   4    1   28 1
   5    2   11 ar
   6    2    3 ar
   7    3    4 ar
   8    4    8 ar
   9    4    5 1
  10    5    6 1
  11    5   29 1
  12    5   30 1
  13    6    7 1
  14    6   13 am
  15    7    8 1
  16    7   31 1
  17    7   32 1
  18    8    9 ar
  19    9   10 1
  20    9   11 ar
  21   10   33 1
  22   10   34 1
  23   10   35 1
  24   11   12 1
  25   13   14 2
  26   13   15 1
  27   15   16 1
  28   15   36 1
  29   15   37 1
  30   16   19 1
  31   16   17 1
  32   16   38 1
  33   17   18 1
  34   17   39 1
  35   17   40 1
  36   18   19 1
  37   18   20 1
  38   19   41 1
  39   19   42 1
  40   20   25 ar
  41   20   21 ar
  42   21   22 ar
  43   21   43 1
  44   22   23 ar
  45   22   44 1
  46   23   24 ar
  47   23   45 1
  48   24   25 ar
  49   25   46 1

#	End of record

