#	Name: ASD01028197
#	Creating user name:	WinNT
#	Creation time:	15. 06. 2019 18:56

#	Modifying user name:	WinNT
#	Modification time:	15. 06. 2019 18:56

#	Program:	/corina/corina34_cracker 3.40 0067  02.08.2006

@<TRIPOS>MOLECULE
ASD01028197
  57   61    0    0    0
SMALL
NO_CHARGES


@<TRIPOS>ATOM
   1 C1            -0.0166     1.3719     0.0096 C.ar    
   2 C2             0.0021    -0.0041     0.0020 C.ar    
   3 C3             1.1750     2.1035     0.0021 C.ar    
   4 C4             2.3797     1.4715    -0.0128 C.ar    
   5 C5             2.4326     0.0695    -0.0208 C.ar    
   6 C6             1.2322    -0.6815    -0.0134 C.ar    
   7 C7             3.6676    -0.6170    -0.0367 C.ar    
   8 C8             3.6411    -2.0003    -0.0444 C.ar    
   9 C9             2.4221    -2.6660    -0.0364 C.ar    
  10 N10            1.2804    -2.0188    -0.0211 N.ar    
  11 O11            4.8427     0.0593    -0.0447 O.3     
  12 C12            6.0400    -0.7207    -0.0607 C.3     
  13 C13            7.2364     0.1957    -0.0676 C.2     
  14 N14            7.8801     0.6746     1.0193 N.pl3   
  15 C15            8.9001     1.4619     0.5397 C.2     
  16 N16            8.8258     1.4222    -0.7806 N.2     
  17 N17            7.8431     0.6668    -1.1285 N.2     
  18 N18            7.7025     0.5207     2.3957 N.2     
  19 C19            8.5057     1.1248     3.2432 C.2     
  20 C20            9.5613     1.9398     2.7821 C.2     
  21 C21            9.7598     2.1080     1.4481 C.2     
  22 C22            8.2995     0.9480     4.7017 C.ar    
  23 C23            7.2600     0.1459     5.1689 C.ar    
  24 C24            9.1480     1.5787     5.6095 C.ar    
  25 C25            8.9519     1.4103     6.9652 C.ar    
  26 C26            7.9156     0.6169     7.4234 C.ar    
  27 C27            7.0732    -0.0154     6.5268 C.ar    
  28 O28           -1.2065     2.0271     0.0188 O.3     
  29 C29           -1.1606     3.4553     0.0263 C.3     
  30 C30            7.7070     0.4361     8.9049 C.3     
  31 N31            6.8021     1.4805     9.4031 N.3     
  32 C32            5.4550     1.3229     8.8388 C.3     
  33 C33            6.7605     1.4845    10.8715 C.3     
  34 H34           -0.9239    -0.5598     0.0082 H       
  35 H35            1.1387     3.1829     0.0079 H       
  36 H36            3.2932     2.0476    -0.0188 H       
  37 H37            4.5646    -2.5602    -0.0569 H       
  38 H38            2.4134    -3.7460    -0.0425 H       
  39 H39            6.0728    -1.3543     0.8256 H       
  40 H40            6.0552    -1.3447    -0.9543 H       
  41 H41           10.2129     2.4300     3.4902 H       
  42 H42           10.5663     2.7304     1.0895 H       
  43 H43            6.6018    -0.3482     4.4697 H       
  44 H44            9.9579     2.1978     5.2529 H       
  45 H45            9.6089     1.8986     7.6697 H       
  46 H46            6.2654    -0.6335     6.8900 H       
  47 H47           -0.6396     3.8068    -0.8642 H       
  48 H48           -2.1761     3.8514     0.0333 H       
  49 H49           -0.6312     3.7971     0.9157 H       
  50 H50            7.2692    -0.5442     9.0932 H       
  51 H51            8.6655     0.5106     9.4185 H       
  52 H52            5.0543     0.3494     9.1213 H       
  53 H53            4.8054     2.1089     9.2241 H       
  54 H54            5.5057     1.3935     7.7522 H       
  55 H55            7.7603     1.6726    11.2628 H       
  56 H56            6.0833     2.2670    11.2137 H       
  57 H57            6.4071     0.5168    11.2277 H       
@<TRIPOS>BOND
   1    1    2 ar
   2    1    3 ar
   3    1   28 1
   4    2    6 ar
   5    2   34 1
   6    3    4 ar
   7    3   35 1
   8    4    5 ar
   9    4   36 1
  10    5    6 ar
  11    5    7 ar
  12    6   10 ar
  13    7    8 ar
  14    7   11 1
  15    8    9 ar
  16    8   37 1
  17    9   10 ar
  18    9   38 1
  19   11   12 1
  20   12   13 1
  21   12   39 1
  22   12   40 1
  23   13   14 1
  24   13   17 2
  25   14   15 1
  26   14   18 1
  27   15   16 2
  28   15   21 1
  29   16   17 1
  30   18   19 2
  31   19   20 1
  32   19   22 1
  33   20   21 2
  34   20   41 1
  35   21   42 1
  36   22   23 ar
  37   22   24 ar
  38   23   27 ar
  39   23   43 1
  40   24   25 ar
  41   24   44 1
  42   25   26 ar
  43   25   45 1
  44   26   27 ar
  45   26   30 1
  46   27   46 1
  47   28   29 1
  48   29   47 1
  49   29   48 1
  50   29   49 1
  51   30   31 1
  52   30   50 1
  53   30   51 1
  54   31   32 1
  55   31   33 1
  56   32   52 1
  57   32   53 1
  58   32   54 1
  59   33   55 1
  60   33   56 1
  61   33   57 1

#	End of record

