#	Name: ASD01150769
#	Creating user name:	WinNT
#	Creation time:	15. 06. 2019 19:05

#	Modifying user name:	WinNT
#	Modification time:	15. 06. 2019 19:05

#	Program:	/corina/corina34_cracker 3.40 0067  02.08.2006

@<TRIPOS>MOLECULE
ASD01150769
  45   48    0    0    0
SMALL
NO_CHARGES


@<TRIPOS>ATOM
   1 C1            -0.1193     1.6032    -0.0749 C.2     
   2 C2            -0.7530     1.3000    -1.4082 C.3     
   3 N3             3.5100     2.2953     0.1228 N.ar    
   4 C4             2.3697     1.6589     0.0693 C.ar    
   5 C5             1.1442     2.3450    -0.0154 C.ar    
   6 C6             1.1461     3.7518    -0.0428 C.ar    
   7 C7             2.3999     4.4100     0.0173 C.ar    
   8 C8             2.4847     5.8076    -0.0057 C.ar    
   9 C9             3.7226     6.4141     0.0542 C.ar    
  10 C10            4.8866     5.6428     0.1367 C.ar    
  11 C11            4.8257     4.2836     0.1598 C.ar    
  12 C12            3.5818     3.6336     0.1013 C.ar    
  13 C13            2.3674     0.1521     0.0975 C.3     
  14 N14            3.8141     7.8073     0.0317 N.3     
  15 C15            2.7004     8.4222     0.7777 C.3     
  16 C16            3.7118     9.4237     1.3528 C.3     
  17 C17            4.7183     8.2947     1.0899 C.3     
  18 O18            3.9104    10.5847     0.5436 O.3     
  19 C19           -0.1145     4.5160    -0.1316 C.ar    
  20 C20           -1.0414     4.4633     0.9124 C.ar    
  21 C21           -2.2161     5.1790     0.8242 C.ar    
  22 C22           -2.4787     5.9502    -0.2978 C.ar    
  23 C23           -1.5624     6.0063    -1.3370 C.ar    
  24 C24           -0.3820     5.2989    -1.2574 C.ar    
  25 F25           -3.6319     6.6493    -0.3790 F       
  26 F26           -2.0605     1.7973    -1.4269 F       
  27 F27           -0.0091     1.9056    -2.4266 F       
  28 F28           -0.7776    -0.0843    -1.6088 F       
  29 O29           -0.6570     1.2378     0.9494 O.2     
  30 H30            1.5880     6.4062    -0.0700 H       
  31 H31            5.8478     6.1332     0.1824 H       
  32 H32            5.7348     3.7039     0.2231 H       
  33 H33            2.3869    -0.1920     1.1315 H       
  34 H34            1.4671    -0.2191    -0.3921 H       
  35 H35            3.2467    -0.2224    -0.4267 H       
  36 H36            1.9499     8.8833     0.1357 H       
  37 H37            2.2657     7.7638     1.5298 H       
  38 H38            3.5630     9.6521     2.4081 H       
  39 H39            4.8221     7.6023     1.9253 H       
  40 H40            5.6780     8.6478     0.7125 H       
  41 H41            4.5479    11.2138     0.9081 H       
  42 H42           -0.8381     3.8627     1.7867 H       
  43 H43           -2.9336     5.1388     1.6305 H       
  44 H44           -1.7723     6.6083    -2.2087 H       
  45 H45            0.3328     5.3466    -2.0656 H       
@<TRIPOS>BOND
   1    1    2 1
   2    1    5 1
   3    1   29 2
   4    2   26 1
   5    2   27 1
   6    2   28 1
   7    3    4 ar
   8    3   12 ar
   9    4    5 ar
  10    4   13 1
  11    5    6 ar
  12    6    7 ar
  13    6   19 1
  14    7    8 ar
  15    7   12 ar
  16    8    9 ar
  17    8   30 1
  18    9   10 ar
  19    9   14 1
  20   10   11 ar
  21   10   31 1
  22   11   12 ar
  23   11   32 1
  24   13   33 1
  25   13   34 1
  26   13   35 1
  27   14   15 1
  28   14   17 1
  29   15   16 1
  30   15   36 1
  31   15   37 1
  32   16   17 1
  33   16   18 1
  34   16   38 1
  35   17   39 1
  36   17   40 1
  37   18   41 1
  38   19   20 ar
  39   19   24 ar
  40   20   21 ar
  41   20   42 1
  42   21   22 ar
  43   21   43 1
  44   22   23 ar
  45   22   25 1
  46   23   24 ar
  47   23   44 1
  48   24   45 1

#	End of record

