#	Name: ASD03331572
#	Creating user name:	WinNT
#	Creation time:	15. 06. 2019 20:39

#	Modifying user name:	WinNT
#	Modification time:	15. 06. 2019 20:39

#	Program:	/corina/corina34_cracker 3.40 0067  02.08.2006

@<TRIPOS>MOLECULE
ASD03331572
  33   35    0    0    0
SMALL
NO_CHARGES


@<TRIPOS>ATOM
   1 O1            -0.0123     1.4384     0.0254 O.3     
   2 C2             0.0015     0.0097     0.0157 C.3     
   3 C3             0.7145    -0.5114     1.2659 C.3     
   4 N4             2.1517    -0.6112     1.0004 N.pl3   
   5 C5             2.8468     0.1447     0.1142 C.2     
   6 C6             2.2409     1.1778    -0.7987 C.3     
   7 C7             1.2755     2.0484     0.0122 C.3     
   8 C8             3.0403    -1.4578     1.5970 C.2     
   9 N9             4.2382    -1.2148     1.1199 N.2     
  10 C10            4.1533    -0.2249     0.2036 C.2     
  11 C11            5.2728     0.3495    -0.5606 C.2     
  12 O12            5.0680     1.2409    -1.3612 O.2     
  13 O13            6.5248    -0.1130    -0.3726 O.3     
  14 C14            2.7080    -2.4804     2.6134 C.ar    
  15 C15            3.5820    -3.5414     2.8514 C.ar    
  16 C16            3.2666    -4.4915     3.8009 C.ar    
  17 C17            2.0865    -4.3936     4.5163 C.ar    
  18 C18            1.2156    -3.3438     4.2850 C.ar    
  19 C19            1.5220    -2.3844     3.3419 C.ar    
  20 H20           -1.0229    -0.3624     0.0013 H       
  21 H21            0.5258    -0.3415    -0.8731 H       
  22 H22            0.5447     0.1762     2.0944 H       
  23 H23            0.3233    -1.4955     1.5239 H       
  24 H24            3.0299     1.8014    -1.2192 H       
  25 H25            1.6976     0.6813    -1.6027 H       
  26 H26            1.2056     3.0359    -0.4439 H       
  27 H27            1.6430     2.1443     1.0339 H       
  28 H28            7.2270     0.2953    -0.8972 H       
  29 H29            4.5034    -3.6192     2.2933 H       
  30 H30            3.9422    -5.3136     3.9858 H       
  31 H31            1.8439    -5.1400     5.2582 H       
  32 H32            0.2959    -3.2729     4.8467 H       
  33 H33            0.8433    -1.5631     3.1651 H       
@<TRIPOS>BOND
   1    1    2 1
   2    1    7 1
   3    2    3 1
   4    2   20 1
   5    2   21 1
   6    3    4 1
   7    3   22 1
   8    3   23 1
   9    4    5 1
  10    4    8 1
  11    5    6 1
  12    5   10 2
  13    6    7 1
  14    6   24 1
  15    6   25 1
  16    7   26 1
  17    7   27 1
  18    8    9 2
  19    8   14 1
  20    9   10 1
  21   10   11 1
  22   11   12 2
  23   11   13 1
  24   13   28 1
  25   14   15 ar
  26   14   19 ar
  27   15   16 ar
  28   15   29 1
  29   16   17 ar
  30   16   30 1
  31   17   18 ar
  32   17   31 1
  33   18   19 ar
  34   18   32 1
  35   19   33 1

#	End of record

