#	Name: ASD02198208
#	Creating user name:	WinNT
#	Creation time:	15. 06. 2019 20:19

#	Modifying user name:	WinNT
#	Modification time:	15. 06. 2019 20:19

#	Program:	/corina/corina34_cracker 3.40 0067  02.08.2006

@<TRIPOS>MOLECULE
ASD02198208
  48   51    0    0    0
SMALL
NO_CHARGES


@<TRIPOS>ATOM
   1 C1            -0.0166     1.3753     0.0096 C.2     
   2 C2             0.0021    -0.0041     0.0020 C.2     
   3 C3            -1.1878    -0.8008     0.0091 C.1     
   4 S4             1.5675     2.0054    -0.0021 S.3     
   5 C5             2.2772     0.3990    -0.0175 C.2     
   6 C6             1.2824    -0.5520    -0.0132 C.2     
   7 C7             3.6579     0.1249    -0.0329 C.2     
   8 C8             4.6307     1.2351    -0.0365 C.2     
   9 O9             4.0505    -1.0301    -0.0433 O.2     
  10 N10            1.5294    -1.9154    -0.0228 N.pl3   
  11 N11           -1.1593     2.1393     0.0194 N.pl3   
  12 N12           -2.1317    -1.4328     0.0147 N.1     
  13 C13           -1.0630     3.6011     0.0268 C.3     
  14 C14           -2.3370     4.1992    -0.5733 C.3     
  15 C15            5.9935     1.1304    -0.0508 C.2     
  16 C16            6.4372     2.4802    -0.0486 C.2     
  17 O17            4.3522     2.5521    -0.0324 O.3     
  18 N18            5.3580     3.2224    -0.0341 N.2     
  19 C19            7.8438     2.9548    -0.0601 C.ar    
  20 C20            8.1209     4.3201    -0.0562 C.ar    
  21 C21            8.8914     2.0365    -0.0689 C.ar    
  22 C22           10.1973     2.4832    -0.0795 C.ar    
  23 C23           10.4668     3.8399    -0.0810 C.ar    
  24 C24            9.4305     4.7560    -0.0669 C.ar    
  25 C25           -2.2365     5.7258    -0.5655 C.3     
  26 C26           -2.0705     6.2187     0.8734 C.3     
  27 C27           -0.7965     5.6206     1.4736 C.3     
  28 C28           -0.8970     4.0939     1.4658 C.3     
  29 H29            2.4424    -2.2428    -0.0333 H       
  30 H30            0.7893    -2.5424    -0.0191 H       
  31 H31           -2.0294     1.7105     0.0213 H       
  32 H32           -0.2021     3.9115    -0.5652 H       
  33 H33           -2.4553     3.8481    -1.5984 H       
  34 H34           -3.1980     3.8887     0.0187 H       
  35 H35            6.5928     0.2319    -0.0612 H       
  36 H36            7.3125     5.0362    -0.0452 H       
  37 H37            8.6821     0.9770    -0.0671 H       
  38 H38           11.0102     1.7722    -0.0864 H       
  39 H39           11.4901     4.1852    -0.0886 H       
  40 H40            9.6464     5.8142    -0.0681 H       
  41 H41           -1.3755     6.0363    -1.1575 H       
  42 H42           -3.1441     6.1519    -0.9930 H       
  43 H43           -1.9988     7.3063     0.8790 H       
  44 H44           -2.9314     5.9082     1.4654 H       
  45 H45            0.0645     5.9310     0.8815 H       
  46 H46           -0.6782     5.9717     2.4987 H       
  47 H47           -1.7579     3.7835     2.0578 H       
  48 H48            0.0106     3.6678     1.8933 H       
@<TRIPOS>BOND
   1    1    2 2
   2    1    4 1
   3    1   11 1
   4    2    3 1
   5    2    6 1
   6    3   12 3
   7    4    5 1
   8    5    6 2
   9    5    7 1
  10    6   10 1
  11    7    8 1
  12    7    9 2
  13    8   15 2
  14    8   17 1
  15   10   29 1
  16   10   30 1
  17   11   13 1
  18   11   31 1
  19   13   14 1
  20   13   28 1
  21   13   32 1
  22   14   25 1
  23   14   33 1
  24   14   34 1
  25   15   16 1
  26   15   35 1
  27   16   19 1
  28   16   18 2
  29   17   18 1
  30   19   20 ar
  31   19   21 ar
  32   20   24 ar
  33   20   36 1
  34   21   22 ar
  35   21   37 1
  36   22   23 ar
  37   22   38 1
  38   23   24 ar
  39   23   39 1
  40   24   40 1
  41   25   26 1
  42   25   41 1
  43   25   42 1
  44   26   27 1
  45   26   43 1
  46   26   44 1
  47   27   28 1
  48   27   45 1
  49   27   46 1
  50   28   47 1
  51   28   48 1

#	End of record

