#	Name: ASD01901610
#	Creating user name:	WinNT
#	Creation time:	15. 06. 2019 19:54

#	Modifying user name:	WinNT
#	Modification time:	15. 06. 2019 19:54

#	Program:	/corina/corina34_cracker 3.40 0067  02.08.2006

@<TRIPOS>MOLECULE
ASD01901610
  46   50    0    0    0
SMALL
NO_CHARGES


@<TRIPOS>ATOM
   1 C1            -1.7764     1.0033    -0.3219 C.3     
   2 C2            -0.4472     1.7002    -0.6236 C.3     
   3 O3             0.5024     1.3727     0.3928 O.3     
   4 C4             0.7957    -0.0225     0.4895 C.3     
   5 C5            -0.4836    -0.7887     0.8360 C.3     
   6 H6            -0.8521    -0.4615     1.8082 H       
   7 C7            -1.5431    -0.5081    -0.2340 C.3     
   8 O8            -0.2047    -2.1896     0.8778 O.3     
   9 C9             0.1808    -2.7047     2.0703 C.ar    
  10 N10            0.2791    -1.9234     3.1270 N.ar    
  11 C11            0.6516    -2.3730     4.3188 C.ar    
  12 C12            0.9595    -3.6807     4.5305 C.ar    
  13 C13            0.8787    -4.5812     3.4492 C.ar    
  14 C14            1.1794    -5.9408     3.5901 C.ar    
  15 C15            1.0807    -6.7724     2.4925 C.ar    
  16 N16            1.3786    -8.1283     2.6248 N.pl3   
  17 C17            1.8888    -8.8416     1.5355 C.2     
  18 N18            2.2286    -8.3406     0.3776 N.2     
  19 N19            2.6973    -9.3546    -0.4642 N.pl3   
  20 H20            3.0080    -9.2310    -1.3747 H       
  21 C21            2.6474   -10.5502     0.2027 C.ar    
  22 C22            2.9810   -11.8612    -0.1354 C.ar    
  23 C23            2.7953   -12.8479     0.8129 C.ar    
  24 C24            2.2882   -12.5135     2.0617 C.ar    
  25 N25            1.9788   -11.2732     2.3644 N.ar    
  26 C26            2.1439   -10.2832     1.4902 C.ar    
  27 C27            0.6842    -6.2681     1.2483 C.ar    
  28 C28            0.3873    -4.9498     1.0895 C.ar    
  29 C29            0.4723    -4.0795     2.1857 C.ar    
  30 H30           -2.1711     1.3667     0.6269 H       
  31 H31           -2.4886     1.2161    -1.1192 H       
  32 H32           -0.0732     1.3664    -1.5916 H       
  33 H33           -0.5992     2.7794    -0.6450 H       
  34 H34            1.1859    -0.3788    -0.4638 H       
  35 H35            1.5391    -0.1844     1.2701 H       
  36 H36           -2.4746    -1.0057     0.0358 H       
  37 H37           -1.1954    -0.8800    -1.1978 H       
  38 H38            0.7124    -1.6799     5.1449 H       
  39 H39            1.2610    -4.0230     5.5094 H       
  40 H40            1.4858    -6.3353     4.5477 H       
  41 H41            1.2319    -8.5767     3.4723 H       
  42 H42            3.3737   -12.0988    -1.1130 H       
  43 H43            3.0429   -13.8740     0.5844 H       
  44 H44            2.1447   -13.2893     2.7993 H       
  45 H45            0.6132    -6.9352     0.4019 H       
  46 H46            0.0828    -4.5757     0.1232 H       
@<TRIPOS>BOND
   1    1    7 1
   2    1    2 1
   3    1   30 1
   4    1   31 1
   5    2    3 1
   6    2   32 1
   7    2   33 1
   8    3    4 1
   9    4    5 1
  10    4   34 1
  11    4   35 1
  12    5    6 1
  13    5    7 1
  14    5    8 1
  15    7   36 1
  16    7   37 1
  17    8    9 1
  18    9   29 ar
  19    9   10 ar
  20   10   11 ar
  21   11   12 ar
  22   11   38 1
  23   12   13 ar
  24   12   39 1
  25   13   29 ar
  26   13   14 ar
  27   14   15 ar
  28   14   40 1
  29   15   16 1
  30   15   27 ar
  31   16   17 1
  32   16   41 1
  33   17   26 1
  34   17   18 2
  35   18   19 1
  36   19   20 1
  37   19   21 1
  38   21   26 ar
  39   21   22 ar
  40   22   23 ar
  41   22   42 1
  42   23   24 ar
  43   23   43 1
  44   24   25 ar
  45   24   44 1
  46   25   26 ar
  47   27   28 ar
  48   27   45 1
  49   28   29 ar
  50   28   46 1

#	End of record

