#	Name: ASD00192055
#	Creating user name:	WinNT
#	Creation time:	15. 06. 2019 18:33

#	Modifying user name:	WinNT
#	Modification time:	15. 06. 2019 18:33

#	Program:	/corina/corina34_cracker 3.40 0067  02.08.2006

@<TRIPOS>MOLECULE
ASD00192055
  35   37    0    0    0
SMALL
NO_CHARGES


@<TRIPOS>ATOM
   1 N1            -0.0157     1.3051     0.0092 N.ar    
   2 C2             0.0021    -0.0041     0.0020 C.ar    
   3 C3             1.2139    -0.7190    -0.0129 C.ar    
   4 C4             2.4222    -0.0119    -0.0207 C.ar    
   5 C5             2.3735     1.3990    -0.0131 C.ar    
   6 C6             3.5399     2.1736    -0.0197 C.ar    
   7 C7             3.4483     3.5342    -0.0115 C.ar    
   8 C8             2.2076     4.1632     0.0037 C.ar    
   9 C9             1.0537     3.4384     0.0104 C.ar    
  10 C10            1.1089     2.0360     0.0024 C.ar    
  11 C11            2.8243    -2.1743    -0.0347 C.2     
  12 N12            1.5296    -2.0373    -0.0221 N.2     
  13 N13            3.4188    -0.9503    -0.0343 N.pl3   
  14 C14            3.5555    -3.4920    -0.0469 C.3     
  15 C15            3.0901    -4.3445     1.1352 C.3     
  16 C16            3.8324    -5.6823     1.1228 C.3     
  17 C17            3.3670    -6.5348     2.3049 C.3     
  18 C18            4.1094    -7.8726     2.2925 C.3     
  19 Cl19          -1.4995    -0.8752     0.0117 Cl      
  20 H20            4.5083     1.6955    -0.0308 H       
  21 H21            4.3491     4.1300    -0.0166 H       
  22 H22            2.1582     5.2421     0.0107 H       
  23 H23            0.0985     3.9422     0.0226 H       
  24 H24            4.3728    -0.7750    -0.0427 H       
  25 H25            3.3438    -4.0164    -0.9787 H       
  26 H26            4.6277    -3.3133     0.0339 H       
  27 H27            3.3018    -3.8201     2.0670 H       
  28 H28            2.0179    -4.5232     1.0544 H       
  29 H29            3.6207    -6.2067     0.1910 H       
  30 H30            4.9047    -5.5036     1.2036 H       
  31 H31            3.5787    -6.0104     3.2368 H       
  32 H32            2.2948    -6.7136     2.2241 H       
  33 H33            3.7777    -8.4800     3.1347 H       
  34 H34            3.8976    -8.3970     1.3607 H       
  35 H35            5.1816    -7.6939     2.3734 H       
@<TRIPOS>BOND
   1    1    2 ar
   2    1   10 ar
   3    2    3 ar
   4    2   19 1
   5    3    4 ar
   6    3   12 1
   7    4    5 ar
   8    4   13 1
   9    5    6 ar
  10    5   10 ar
  11    6    7 ar
  12    6   20 1
  13    7    8 ar
  14    7   21 1
  15    8    9 ar
  16    8   22 1
  17    9   10 ar
  18    9   23 1
  19   11   12 2
  20   11   13 1
  21   11   14 1
  22   13   24 1
  23   14   15 1
  24   14   25 1
  25   14   26 1
  26   15   16 1
  27   15   27 1
  28   15   28 1
  29   16   17 1
  30   16   29 1
  31   16   30 1
  32   17   18 1
  33   17   31 1
  34   17   32 1
  35   18   33 1
  36   18   34 1
  37   18   35 1

#	End of record

