#	Name: ASD01911896
#	Creating user name:	WinNT
#	Creation time:	15. 06. 2019 19:58

#	Modifying user name:	WinNT
#	Modification time:	15. 06. 2019 19:58

#	Program:	/corina/corina34_cracker 3.40 0067  02.08.2006

@<TRIPOS>MOLECULE
ASD01911896
  38   40    0    0    0
SMALL
NO_CHARGES


@<TRIPOS>ATOM
   1 C1            -1.1003    -1.0212     2.6673 C.ar    
   2 C2            -1.1754    -0.2016     1.5457 C.ar    
   3 C3            -1.3335     1.1670     1.7387 C.ar    
   4 N4            -1.4063     1.6370     2.9731 N.ar    
   5 C5            -1.3311     0.8277     4.0105 C.ar    
   6 N6            -1.1814    -0.4739     3.8688 N.ar    
   7 O7            -1.0958    -0.7244     0.2937 O.3     
   8 C8            -0.9393    -2.0687     0.1725 C.ar    
   9 C9             0.3066    -2.5981    -0.1355 C.ar    
  10 C10            0.4673    -3.9648    -0.2586 C.ar    
  11 C11           -0.6109    -4.8091    -0.0757 C.ar    
  12 C12           -1.8601    -4.2853     0.2322 C.ar    
  13 C13           -2.0223    -2.9128     0.3619 C.ar    
  14 N14           -2.9516    -5.1398     0.4166 N.am    
  15 C15           -4.1899    -4.7355     0.0707 C.2     
  16 C16           -5.3563    -5.5958     0.3611 C.ar    
  17 O17           -4.3476    -3.6633    -0.4800 O.2     
  18 C18           -5.1788    -6.8274     0.9933 C.ar    
  19 C19           -6.2718    -7.6256     1.2614 C.ar    
  20 C20           -7.5414    -7.2078     0.9047 C.ar    
  21 C21           -7.7244    -5.9878     0.2776 C.ar    
  22 C22           -6.6409    -5.1774     0.0094 C.ar    
  23 C23           -9.1111    -5.5411    -0.1078 C.3     
  24 H24           -0.9821    -2.0892     2.5585 H       
  25 H25           -1.3955     1.8360     0.8931 H       
  26 H26           -1.3936     1.2433     5.0054 H       
  27 H27            1.1513    -1.9406    -0.2795 H       
  28 H28            1.4376    -4.3739    -0.4987 H       
  29 H29           -0.4825    -5.8771    -0.1725 H       
  30 H30           -2.9924    -2.5029     0.6013 H       
  31 H31           -2.8175    -6.0236     0.7933 H       
  32 H32           -4.1880    -7.1550     1.2717 H       
  33 H33           -6.1358    -8.5788     1.7505 H       
  34 H34           -8.3936    -7.8367     1.1162 H       
  35 H35           -6.7851    -4.2255    -0.4800 H       
  36 H36           -9.5535    -4.9791     0.7147 H       
  37 H37           -9.0558    -4.9071    -0.9927 H       
  38 H38           -9.7270    -6.4140    -0.3241 H       
@<TRIPOS>BOND
   1    1    2 ar
   2    1    6 ar
   3    1   24 1
   4    2    3 ar
   5    2    7 1
   6    3    4 ar
   7    3   25 1
   8    4    5 ar
   9    5    6 ar
  10    5   26 1
  11    7    8 1
  12    8    9 ar
  13    8   13 ar
  14    9   10 ar
  15    9   27 1
  16   10   11 ar
  17   10   28 1
  18   11   12 ar
  19   11   29 1
  20   12   13 ar
  21   12   14 1
  22   13   30 1
  23   14   15 am
  24   14   31 1
  25   15   16 1
  26   15   17 2
  27   16   18 ar
  28   16   22 ar
  29   18   19 ar
  30   18   32 1
  31   19   20 ar
  32   19   33 1
  33   20   21 ar
  34   20   34 1
  35   21   22 ar
  36   21   23 1
  37   22   35 1
  38   23   36 1
  39   23   37 1
  40   23   38 1

#	End of record

