#	Name: ASD03540147
#	Creating user name:	WinNT
#	Creation time:	15. 06. 2019 20:42

#	Modifying user name:	WinNT
#	Modification time:	15. 06. 2019 20:42

#	Program:	/corina/corina34_cracker 3.40 0067  02.08.2006

@<TRIPOS>MOLECULE
ASD03540147
  51   54    0    0    0
SMALL
NO_CHARGES


@<TRIPOS>ATOM
   1 C1             2.7522    -8.6911    -2.5506 C.2     
   2 C2             2.0609    -7.5585    -1.9012 C.ar    
   3 C3             0.6752    -7.5863    -1.7324 C.ar    
   4 C4             0.0362    -6.5255    -1.1248 C.ar    
   5 C5             0.7652    -5.4354    -0.6834 C.ar    
   6 C6             2.1386    -5.4011    -0.8479 C.ar    
   7 C7             2.7911    -6.4579    -1.4483 C.ar    
   8 O8             2.1149    -9.6494    -2.9391 O.2     
   9 O9             4.0886    -8.6587    -2.7169 O.3     
  10 C10            0.0601    -4.2800    -0.0210 C.3     
  11 C11           -2.2985    -4.3337     0.5370 C.2     
  12 N12           -3.3760    -4.7469     1.2270 N.am    
  13 C13           -3.2469    -5.6792     2.2437 C.ar    
  14 C14           -1.9669    -6.1840     2.5388 C.ar    
  15 C15           -0.8206    -5.6955     1.7505 C.2     
  16 N16           -1.0579    -4.7846     0.7800 N.am    
  17 C17           -4.3355    -6.1303     2.9792 C.ar    
  18 C18           -1.8315    -7.1193     3.5581 C.ar    
  19 C19           -2.9780    -7.5180     4.2471 C.ar    
  20 N20           -4.1695    -7.0167     3.9380 N.ar    
  21 C21           -2.8689    -8.4805     5.3018 C.1     
  22 C22           -2.7795    -9.2696     6.1664 C.1     
  23 C23           -2.6675   -10.2589     7.2506 C.3     
  24 C24           -4.0320   -10.5219     7.8337 C.ar    
  25 C25           -4.8249   -11.5266     7.3115 C.ar    
  26 C26           -6.0765   -11.7678     7.8464 C.ar    
  27 C27           -6.5351   -11.0045     8.9038 C.ar    
  28 C28           -5.7418   -10.0003     9.4265 C.ar    
  29 C29           -4.4884    -9.7620     8.8945 C.ar    
  30 O30            0.3050    -6.1002     1.9667 O.2     
  31 O31           -2.4558    -3.5181    -0.3509 O.2     
  32 C32            1.0420    -3.5355     0.8859 C.3     
  33 H33            0.1049    -8.4362    -2.0771 H       
  34 H34           -1.0356    -6.5457    -0.9936 H       
  35 H35            2.7016    -4.5469    -0.5018 H       
  36 H36            3.8637    -6.4320    -1.5717 H       
  37 H37            4.4961    -9.4229    -3.1470 H       
  38 H38           -0.3177    -3.5992    -0.7838 H       
  39 H39           -4.2513    -4.3888     1.0113 H       
  40 H40           -5.3236    -5.7514     2.7635 H       
  41 H41           -0.8639    -7.5274     3.8103 H       
  42 H42           -2.2567   -11.1875     6.8540 H       
  43 H43           -2.0083    -9.8729     8.0281 H       
  44 H44           -4.4666   -12.1230     6.4855 H       
  45 H45           -6.6963   -12.5523     7.4380 H       
  46 H46           -7.5132   -11.1924     9.3212 H       
  47 H47           -6.1002    -9.4038    10.2524 H       
  48 H48           -3.8671    -8.9799     9.3053 H       
  49 H49            1.4198    -4.2162     1.6487 H       
  50 H50            1.8739    -3.1600     0.2899 H       
  51 H51            0.5320    -2.6998     1.3650 H       
@<TRIPOS>BOND
   1    1    2 1
   2    1    8 2
   3    1    9 1
   4    2    3 ar
   5    2    7 ar
   6    3    4 ar
   7    3   33 1
   8    4    5 ar
   9    4   34 1
  10    5    6 ar
  11    5   10 1
  12    6    7 ar
  13    6   35 1
  14    7   36 1
  15    9   37 1
  16   10   16 1
  17   10   32 1
  18   10   38 1
  19   11   12 am
  20   11   16 am
  21   11   31 2
  22   12   13 1
  23   12   39 1
  24   13   14 ar
  25   13   17 ar
  26   14   15 1
  27   14   18 ar
  28   15   16 am
  29   15   30 2
  30   17   20 ar
  31   17   40 1
  32   18   19 ar
  33   18   41 1
  34   19   20 ar
  35   19   21 1
  36   21   22 3
  37   22   23 1
  38   23   24 1
  39   23   42 1
  40   23   43 1
  41   24   25 ar
  42   24   29 ar
  43   25   26 ar
  44   25   44 1
  45   26   27 ar
  46   26   45 1
  47   27   28 ar
  48   27   46 1
  49   28   29 ar
  50   28   47 1
  51   29   48 1
  52   32   49 1
  53   32   50 1
  54   32   51 1

#	End of record

