#	Name: ASD03430569
#	Creating user name:	WinNT
#	Creation time:	15. 06. 2019 20:41

#	Modifying user name:	WinNT
#	Modification time:	15. 06. 2019 20:41

#	Program:	/corina/corina34_cracker 3.40 0067  02.08.2006

@<TRIPOS>MOLECULE
ASD03430569
  26   28    0    0    0
SMALL
NO_CHARGES


@<TRIPOS>ATOM
   1 N1            -0.0161     1.3394     0.0094 N.am    
   2 C2             0.0021    -0.0041     0.0020 C.2     
   3 C3             1.4546    -0.4302    -0.0141 C.3     
   4 C4             2.2206     0.8729    -0.0140 C.ar    
   5 C5             3.5664     1.1670    -0.0242 C.ar    
   6 C6             3.9878     2.4889    -0.0199 C.ar    
   7 C7             3.0467     3.5123    -0.0085 C.ar    
   8 C8             1.6949     3.2119     0.0022 C.ar    
   9 C9             1.2702     1.8854     0.0001 C.ar    
  10 O10            5.3208     2.7658    -0.0224 O.3     
  11 O11            3.4392     4.8163    -0.0116 O.3     
  12 C12            4.7964     5.0809     0.3587 C.3     
  13 C13            5.7010     4.0954    -0.3934 C.3     
  14 O14           -0.9638    -0.7377     0.0076 O.2     
  15 C15           -1.2432     2.1397     0.0198 C.3     
  16 H16            1.6915    -1.0124     0.8764 H       
  17 H17            1.6746    -1.0024    -0.9153 H       
  18 H18            4.2935     0.3686    -0.0353 H       
  19 H19            0.9668     4.0096     0.0131 H       
  20 H20            5.0593     6.1029     0.0856 H       
  21 H21            4.9176     4.9444     1.4333 H       
  22 H22            6.7418     4.2698    -0.1204 H       
  23 H23            5.5752     4.2274    -1.4680 H       
  24 H24           -2.1089     1.4774     0.0209 H       
  25 H25           -1.2623     2.7640     0.9130 H       
  26 H26           -1.2714     2.7730    -0.8669 H       
@<TRIPOS>BOND
   1    1    2 am
   2    1    9 1
   3    1   15 1
   4    2    3 1
   5    2   14 2
   6    3    4 1
   7    3   16 1
   8    3   17 1
   9    4    5 ar
  10    4    9 ar
  11    5    6 ar
  12    5   18 1
  13    6    7 ar
  14    6   10 1
  15    7    8 ar
  16    7   11 1
  17    8    9 ar
  18    8   19 1
  19   10   13 1
  20   11   12 1
  21   12   13 1
  22   12   20 1
  23   12   21 1
  24   13   22 1
  25   13   23 1
  26   15   24 1
  27   15   25 1
  28   15   26 1

#	End of record

