#	Name: ASD02030420
#	Creating user name:	WinNT
#	Creation time:	15. 06. 2019 20:15

#	Modifying user name:	WinNT
#	Modification time:	15. 06. 2019 20:15

#	Program:	/corina/corina34_cracker 3.40 0067  02.08.2006

@<TRIPOS>MOLECULE
ASD02030420
  21   21    0    0    0
SMALL
NO_CHARGES


@<TRIPOS>ATOM
   1 C1            -0.0168     1.3893     0.0097 C.ar    
   2 C2             0.0021    -0.0041     0.0020 C.ar    
   3 C3             1.2225    -0.6606    -0.0131 C.ar    
   4 C4             2.3820     0.0992    -0.0201 C.ar    
   5 C5             2.2884     1.4818    -0.0118 C.ar    
   6 N6             1.1171     2.0794     0.0026 N.ar    
   7 C7            -1.3125     2.1059     0.0197 C.2     
   8 O8            -2.3528     1.4796     0.0212 O.2     
   9 O9            -1.3372     3.4524     0.0271 O.3     
  10 C10            3.5462     2.3118    -0.0193 C.3     
  11 O11            4.6857     1.4497    -0.0348 O.3     
  12 C12            5.9368     2.1402    -0.0430 C.3     
  13 H13           -0.9212    -0.5644     0.0082 H       
  14 H14            1.2692    -1.7396    -0.0190 H       
  15 H15            3.3489    -0.3818    -0.0315 H       
  16 H16           -2.2067     3.8755     0.0335 H       
  17 H17            3.5580     2.9456    -0.9061 H       
  18 H18            3.5749     2.9360     0.8738 H       
  19 H19            6.7514     1.4160    -0.0547 H       
  20 H20            5.9982     2.7704    -0.9303 H       
  21 H21            6.0152     2.7608     0.8496 H       
@<TRIPOS>BOND
   1    1    2 ar
   2    1    6 ar
   3    1    7 1
   4    2    3 ar
   5    2   13 1
   6    3    4 ar
   7    3   14 1
   8    4    5 ar
   9    4   15 1
  10    5    6 ar
  11    5   10 1
  12    7    8 2
  13    7    9 1
  14    9   16 1
  15   10   11 1
  16   10   17 1
  17   10   18 1
  18   11   12 1
  19   12   19 1
  20   12   20 1
  21   12   21 1

#	End of record

