#	Name: ASD01140197
#	Creating user name:	WinNT
#	Creation time:	15. 06. 2019 19:00

#	Modifying user name:	WinNT
#	Modification time:	15. 06. 2019 19:00

#	Program:	/corina/corina34_cracker 3.40 0067  02.08.2006

@<TRIPOS>MOLECULE
ASD01140197
  42   45    0    0    0
SMALL
NO_CHARGES


@<TRIPOS>ATOM
   1 C1             0.0647     1.6954    -0.3645 C.3     
   2 N2             0.0818     0.2341    -0.2606 N.am    
   3 C3             0.6402    -0.5046    -1.2398 C.2     
   4 O4             1.1299     0.0418    -2.2098 O.2     
   5 N5             0.1496    -2.7152    -0.1146 N.2     
   6 C6             0.3405    -3.9787    -0.3702 C.2     
   7 N7             0.9670    -4.0935    -1.5728 N.pl3   
   8 C8             1.1832    -2.8406    -2.0424 C.2     
   9 C9             1.8952    -2.4990    -3.3263 C.3     
  10 N10            3.2518    -3.0512    -3.2456 N.2     
  11 C11            3.4631    -4.3154    -3.1098 C.2     
  12 C12            2.4692    -5.3902    -2.9989 C.ar    
  13 C13            1.3067    -5.2765    -2.2324 C.ar    
  14 C14            0.4382    -6.3600    -2.1178 C.ar    
  15 C15            0.6925    -7.5372    -2.7830 C.ar    
  16 C16            1.8318    -7.6512    -3.5847 C.ar    
  17 C17            2.7145    -6.5836    -3.6900 C.ar    
  18 C18            2.0888    -8.8667    -4.2968 C.1     
  19 C19            2.2996    -9.8632    -4.8806 C.1     
  20 C20            4.8819    -4.7352    -3.0600 C.ar    
  21 C21            5.7004    -4.5720    -4.1776 C.ar    
  22 C22            7.0219    -4.9646    -4.1251 C.ar    
  23 C23            7.5375    -5.5201    -2.9673 C.ar    
  24 C24            6.7334    -5.6857    -1.8547 C.ar    
  25 C25            5.4088    -5.2914    -1.8913 C.ar    
  26 F26            4.6246    -5.4485    -0.8025 F       
  27 C27            0.6573    -1.9740    -1.1353 C.2     
  28 H28            1.0876     2.0673    -0.4243 H       
  29 H29           -0.4818     1.9895    -1.2606 H       
  30 H30           -0.4242     2.1164     0.5139 H       
  31 H31           -0.3089    -0.2016     0.5130 H       
  32 H32            0.0496    -4.8000     0.2679 H       
  33 H33            1.3663    -2.9407    -4.1708 H       
  34 H34            1.9435    -1.4165    -3.4451 H       
  35 H35           -0.4435    -6.2751    -1.4999 H       
  36 H36            0.0135    -8.3714    -2.6857 H       
  37 H37            3.5957    -6.6744    -4.3078 H       
  38 H38            2.4881   -10.7544    -5.4028 H       
  39 H39            5.3003    -4.1393    -5.0826 H       
  40 H40            7.6558    -4.8383    -4.9903 H       
  41 H41            8.5726    -5.8261    -2.9328 H       
  42 H42            7.1419    -6.1203    -0.9542 H       
@<TRIPOS>BOND
   1    1    2 1
   2    1   28 1
   3    1   29 1
   4    1   30 1
   5    2    3 am
   6    2   31 1
   7    3    4 2
   8    3   27 1
   9    5    6 2
  10    5   27 1
  11    6    7 1
  12    6   32 1
  13    7    8 1
  14    7   13 1
  15    8    9 1
  16    8   27 2
  17    9   10 1
  18    9   33 1
  19    9   34 1
  20   10   11 2
  21   11   12 1
  22   11   20 1
  23   12   13 ar
  24   12   17 ar
  25   13   14 ar
  26   14   15 ar
  27   14   35 1
  28   15   16 ar
  29   15   36 1
  30   16   17 ar
  31   16   18 1
  32   17   37 1
  33   18   19 3
  34   19   38 1
  35   20   21 ar
  36   20   25 ar
  37   21   22 ar
  38   21   39 1
  39   22   23 ar
  40   22   40 1
  41   23   24 ar
  42   23   41 1
  43   24   25 ar
  44   24   42 1
  45   25   26 1

#	End of record

