#	Name: ASD01916258
#	Creating user name:	WinNT
#	Creation time:	15. 06. 2019 20:07

#	Modifying user name:	WinNT
#	Modification time:	15. 06. 2019 20:07

#	Program:	/corina/corina34_cracker 3.40 0067  02.08.2006

@<TRIPOS>MOLECULE
ASD01916258
  31   33    0    0    0
SMALL
NO_CHARGES


@<TRIPOS>ATOM
   1 C1            -0.0161     1.3393     0.0094 C.2     
   2 N2             0.0021    -0.0041     0.0020 N.am    
   3 C3             1.2021    -0.6748    -0.0130 C.2     
   4 C4             2.4429     0.1042    -0.0210 C.2     
   5 C5             2.3547     1.4483    -0.0132 C.2     
   6 N6             1.1213     2.0552     0.0024 N.am    
   7 N7             0.9507    -1.9664    -0.0169 N.2     
   8 C8            -0.3752    -2.1594    -0.0048 C.2     
   9 C9            -0.9858    -0.9583     0.0071 C.2     
  10 O10           -1.0845     1.9199     0.0176 O.2     
  11 C11           -1.0684    -3.4975    -0.0050 C.3     
  12 Cl12          -1.3287    -4.0397     1.6948 Cl      
  13 C13            1.0448     3.5181     0.0110 C.3     
  14 C14            1.0321     4.0122     1.4346 C.ar    
  15 C15            2.2218     4.3013     2.0765 C.ar    
  16 C16            2.2102     4.7544     3.3824 C.ar    
  17 C17            1.0089     4.9188     4.0463 C.ar    
  18 C18           -0.1808     4.6306     3.4041 C.ar    
  19 C19           -0.1694     4.1816     2.0968 C.ar    
  20 H20            3.4046    -0.3871    -0.0324 H       
  21 H21            3.2523     2.0489    -0.0187 H       
  22 H22           -2.0509    -0.7797     0.0184 H       
  23 H23           -2.0306    -3.4082    -0.5092 H       
  24 H24           -0.4502    -4.2269    -0.5284 H       
  25 H25            1.9097     3.9302    -0.5089 H       
  26 H26            0.1322     3.8372    -0.4925 H       
  27 H27            3.1604     4.1728     1.5578 H       
  28 H28            3.1397     4.9796     3.8842 H       
  29 H29            0.9999     5.2722     5.0668 H       
  30 H30           -1.1193     4.7587     3.9229 H       
  31 H31           -1.0991     3.9599     1.5938 H       
@<TRIPOS>BOND
   1    1    2 am
   2    1    6 am
   3    1   10 2
   4    2    3 1
   5    2    9 1
   6    3    4 1
   7    3    7 2
   8    4    5 2
   9    4   20 1
  10    5    6 1
  11    5   21 1
  12    6   13 1
  13    7    8 1
  14    8    9 2
  15    8   11 1
  16    9   22 1
  17   11   12 1
  18   11   23 1
  19   11   24 1
  20   13   14 1
  21   13   25 1
  22   13   26 1
  23   14   15 ar
  24   14   19 ar
  25   15   16 ar
  26   15   27 1
  27   16   17 ar
  28   16   28 1
  29   17   18 ar
  30   17   29 1
  31   18   19 ar
  32   18   30 1
  33   19   31 1

#	End of record

