#	Name: ASD00150001
#	Creating user name:	WinNT
#	Creation time:	15. 06. 2019 18:31

#	Modifying user name:	WinNT
#	Modification time:	15. 06. 2019 18:31

#	Program:	/corina/corina34_cracker 3.40 0067  02.08.2006

@<TRIPOS>MOLECULE
ASD00150001
  47   49    0    0    0
SMALL
NO_CHARGES


@<TRIPOS>ATOM
   1 P1            -0.0180     1.4758     0.0102 P.3     
   2 O2             0.0021    -0.0041     0.0020 O.2     
   3 O3             1.4924     2.0330    -0.0013 O.3     
   4 O4            -3.7869     4.1884     4.8987 O.3     
   5 O5            -0.7967     2.0091    -1.2942 O.3     
   6 O6            -0.7716     1.9950     1.3348 O.3     
   7 P7            -2.0773     1.5092     2.1417 P.3     
   8 O8            -3.1301     1.1090     1.1816 O.2     
   9 O9            -1.6956     0.2531     3.0739 O.3     
  10 O10           -2.6194     2.7146     3.0611 O.3     
  11 P11           -3.9992     2.9913     3.8432 P.3     
  12 O12           -4.4124     1.7661     4.5632 O.2     
  13 O13           -5.1416     3.4039     2.7865 O.3     
  14 C14           -4.7977     4.6015     5.8205 C.3     
  15 O15           -3.2005     5.2937     7.5155 O.3     
  16 C16           -4.2691     5.7569     6.6729 C.3     
  17 C17           -5.3862     6.2808     7.5961 C.3     
  18 C18           -4.8102     6.1108     9.0230 C.3     
  19 C19           -3.2861     6.0358     8.7510 C.3     
  20 O20           -5.1276     7.2402     9.8390 O.3     
  21 O21           -5.6538     7.6582     7.3256 O.3     
  22 N22           -1.7355     3.6821    10.9847 N.2     
  23 C23           -2.3618     3.9786     9.8832 C.2     
  24 N24           -2.6039     5.3192     9.8315 N.pl3   
  25 C25           -2.0912     5.8742    10.9766 C.ar    
  26 N26           -2.0265     7.1040    11.4759 N.ar    
  27 C27           -1.4514     7.3266    12.6390 C.ar    
  28 N28           -0.9162     6.3596    13.3617 N.ar    
  29 C29           -0.9330     5.0980    12.9438 C.ar    
  30 C30           -1.5363     4.8102    11.7079 C.ar    
  31 N31           -0.3691     4.0915    13.7079 N.pl3   
  32 H32            2.0070     1.7589    -0.7727 H       
  33 H33           -0.8486     2.9728    -1.3546 H       
  34 H34           -1.0099     0.4433     3.7286 H       
  35 H35           -4.9375     4.2004     2.2775 H       
  36 H36           -5.6793     4.9299     5.2700 H       
  37 H37           -5.0637     3.7652     6.4670 H       
  38 H38           -3.9120     6.5614     6.0299 H       
  39 H39           -6.2909     5.6848     7.4764 H       
  40 H40           -5.1695     5.1889     9.4802 H       
  41 H41           -2.8684     7.0351     8.6283 H       
  42 H42           -6.0761     7.3815     9.9631 H       
  43 H43           -6.3493     8.0398     7.8786 H       
  44 H44           -2.6474     3.2676     9.1221 H       
  45 H45           -1.4157     8.3379    13.0162 H       
  46 H46            0.0448     4.3029    14.5593 H       
  47 H47           -0.3877     3.1745    13.3921 H       
@<TRIPOS>BOND
   1    1    2 2
   2    1    3 1
   3    1    5 1
   4    1    6 1
   5    3   32 1
   6    4   11 1
   7    4   14 1
   8    5   33 1
   9    6    7 1
  10    7    8 2
  11    7    9 1
  12    7   10 1
  13    9   34 1
  14   10   11 1
  15   11   12 2
  16   11   13 1
  17   13   35 1
  18   14   16 1
  19   14   36 1
  20   14   37 1
  21   15   16 1
  22   15   19 1
  23   16   17 1
  24   16   38 1
  25   17   18 1
  26   17   21 1
  27   17   39 1
  28   18   19 1
  29   18   20 1
  30   18   40 1
  31   19   24 1
  32   19   41 1
  33   20   42 1
  34   21   43 1
  35   22   23 2
  36   22   30 1
  37   23   24 1
  38   23   44 1
  39   24   25 1
  40   25   26 ar
  41   25   30 ar
  42   26   27 ar
  43   27   28 ar
  44   27   45 1
  45   28   29 ar
  46   29   30 ar
  47   29   31 1
  48   31   46 1
  49   31   47 1

#	End of record

