#	Name: ASD04230119
#	Creating user name:	WinNT
#	Creation time:	15. 06. 2019 20:48

#	Modifying user name:	WinNT
#	Modification time:	15. 06. 2019 20:48

#	Program:	/corina/corina34_cracker 3.40 0067  02.08.2006

@<TRIPOS>MOLECULE
ASD04230119
  43   46    0    0    0
SMALL
NO_CHARGES


@<TRIPOS>ATOM
   1 C1            -0.0201     1.3790     0.0495 C.ar    
   2 C2            -0.0003    -0.0082     0.0381 C.ar    
   3 C3             1.1849    -0.6863     0.0290 C.ar    
   4 C4             2.3957     0.0212     0.0419 C.ar    
   5 C5             2.3815     1.4276     0.0207 C.ar    
   6 C6             1.1610     2.0997     0.0379 C.ar    
   7 C7             3.6343    -0.6710     0.0713 C.2     
   8 C8             4.7887     0.0707     0.2846 C.2     
   9 C9             4.6294     1.5211     0.4956 C.2     
  10 O10            3.5429     2.1221    -0.0388 O.3     
  11 C11            6.1167    -0.5651     0.2999 C.2     
  12 N12            7.2189     0.1816     0.5095 N.am    
  13 O13            6.2189    -1.7642     0.1234 O.2     
  14 C14            8.4677    -0.4352     0.6363 C.ar    
  15 C15            9.6061     0.1931     0.1465 C.ar    
  16 C16           10.8419    -0.4133     0.2705 C.ar    
  17 C17           10.9522    -1.6463     0.8815 C.ar    
  18 C18            9.8155    -2.2839     1.3759 C.ar    
  19 C19            8.5711    -1.6717     1.2563 C.ar    
  20 C20            9.9324    -3.6096     2.0326 C.ar    
  21 O21            5.4496     2.1569     1.1308 O.2     
  22 C22           11.1732    -4.2374     2.1662 C.ar    
  23 N23           11.2326    -5.4180     2.7582 N.ar    
  24 C24           10.1435    -6.0011     3.2182 C.ar    
  25 N25            8.9537    -5.4434     3.1126 N.ar    
  26 C26            8.8055    -4.2614     2.5393 C.ar    
  27 O27            1.1309     3.4591     0.0430 O.3     
  28 C28           -0.1564     4.0793     0.0608 C.3     
  29 H29           -0.9655     1.9009     0.0629 H       
  30 H30           -0.9306    -0.5567     0.0369 H       
  31 H31            1.1898    -1.7661     0.0122 H       
  32 H32            3.6777    -1.7411    -0.0675 H       
  33 H33            7.1461     1.1468     0.5725 H       
  34 H34            9.5251     1.1575    -0.3327 H       
  35 H35           11.7239     0.0788    -0.1121 H       
  36 H36           11.9195    -2.1172     0.9763 H       
  37 H37            7.6876    -2.1617     1.6380 H       
  38 H38           12.0697    -3.7660     1.7915 H       
  39 H39           10.2286    -6.9659     3.6961 H       
  40 H40            7.8276    -3.8105     2.4568 H       
  41 H41           -0.6958     3.7711     0.9564 H       
  42 H42           -0.0376     5.1628     0.0631 H       
  43 H43           -0.7176     3.7772    -0.8234 H       
@<TRIPOS>BOND
   1    1    2 ar
   2    1    6 ar
   3    1   29 1
   4    2    3 ar
   5    2   30 1
   6    3    4 ar
   7    3   31 1
   8    4    5 ar
   9    4    7 1
  10    5    6 ar
  11    5   10 1
  12    6   27 1
  13    7    8 2
  14    7   32 1
  15    8    9 1
  16    8   11 1
  17    9   10 1
  18    9   21 2
  19   11   12 am
  20   11   13 2
  21   12   14 1
  22   12   33 1
  23   14   15 ar
  24   14   19 ar
  25   15   16 ar
  26   15   34 1
  27   16   17 ar
  28   16   35 1
  29   17   18 ar
  30   17   36 1
  31   18   19 ar
  32   18   20 1
  33   19   37 1
  34   20   22 ar
  35   20   26 ar
  36   22   23 ar
  37   22   38 1
  38   23   24 ar
  39   24   25 ar
  40   24   39 1
  41   25   26 ar
  42   26   40 1
  43   27   28 1
  44   28   41 1
  45   28   42 1
  46   28   43 1

#	End of record

