#	Name: ASD09116057
#	Creating user name:	WinNT
#	Creation time:	15. 06. 2019 21:20

#	Modifying user name:	WinNT
#	Modification time:	15. 06. 2019 21:20

#	Program:	/corina/corina34_cracker 3.40 0067  02.08.2006

@<TRIPOS>MOLECULE
ASD09116057
  63   67    0    0    0
SMALL
NO_CHARGES


@<TRIPOS>ATOM
   1 C1            -0.0668     1.3932    -0.3083 C.ar    
   2 N2            -0.0346     0.0021    -0.2550 N.pl3   
   3 N3            -1.1343    -0.8613    -0.1242 N.2     
   4 C4            -0.6626    -2.0846    -0.1168 C.2     
   5 N5             0.6698    -2.0422    -0.2353 N.2     
   6 C6             1.0677    -0.7914    -0.3252 C.2     
   7 N7             2.3734    -0.3604    -0.4586 N.pl3   
   8 N8            -1.4273    -3.2452    -0.0027 N.pl3   
   9 N9             1.0701     2.0591    -0.4350 N.ar    
  10 N10           -1.2374     2.0150    -0.2363 N.ar    
  11 C11           -1.2894     3.3281    -0.2830 C.ar    
  12 C12           -0.1174     4.0595    -0.4222 C.ar    
  13 C13            1.0834     3.3834    -0.4960 C.ar    
  14 C14           -2.5772     4.0989    -0.1728 C.3     
  15 C15           -3.1209     4.4893    -1.5100 C.3     
  16 C16           -2.5023     5.6791    -2.2172 C.3     
  17 C17           -1.1358     5.2978    -2.8151 C.3     
  18 C18           -0.0358     5.9873    -1.9605 C.3     
  19 C19           -0.2026     5.5576    -0.5038 C.3     
  20 C20           -0.8174    -4.5002    -0.1217 C.ar    
  21 C21           -1.3413    -5.5938     0.5552 C.ar    
  22 C22           -0.7399    -6.8312     0.4379 C.ar    
  23 C23            0.3891    -6.9820    -0.3565 C.ar    
  24 C24            0.9133    -5.8883    -1.0330 C.ar    
  25 C25            0.3080    -4.6523    -0.9211 C.ar    
  26 N26            0.9990    -8.2362    -0.4750 N.3     
  27 C27            2.1713    -8.1704    -1.3588 C.3     
  28 C28            0.0413    -9.2448    -0.9495 C.3     
  29 C29            0.7242   -10.6139    -0.9895 C.3     
  30 N30            1.8965   -10.5481    -1.8733 N.3     
  31 C31            2.8542    -9.5395    -1.3988 C.3     
  32 C32            2.5366   -11.8644    -1.9976 C.3     
  33 H33            3.0962    -1.0064    -0.4931 H       
  34 H34            2.5674     0.5881    -0.5177 H       
  35 H35           -2.3817    -3.1832     0.1590 H       
  36 H36            2.0143     3.9217    -0.5971 H       
  37 H37           -3.3145     3.4833     0.3424 H       
  38 H38           -2.4003     5.0005     0.4137 H       
  39 H39           -3.0278     3.6268    -2.1699 H       
  40 H40           -4.1847     4.6932    -1.3880 H       
  41 H41           -3.1662     6.0085    -3.0165 H       
  42 H42           -2.3695     6.4930    -1.5045 H       
  43 H43           -1.0064     4.2160    -2.7805 H       
  44 H44           -1.0740     5.6451    -3.8464 H       
  45 H45            0.9482     5.6862    -2.3198 H       
  46 H46           -0.1393     7.0697    -2.0362 H       
  47 H47           -1.1736     5.8882    -0.1350 H       
  48 H48            0.5888     6.0013     0.1002 H       
  49 H49           -2.2189    -5.4764     1.1736 H       
  50 H50           -1.1473    -7.6816     0.9643 H       
  51 H51            1.7917    -6.0054    -1.6503 H       
  52 H52            0.7154    -3.8018    -1.4475 H       
  53 H53            1.8538    -7.8929    -2.3640 H       
  54 H54            2.8712    -7.4258    -0.9797 H       
  55 H55           -0.8116    -9.2835    -0.2720 H       
  56 H56           -0.3004    -8.9795    -1.9500 H       
  57 H57            1.0417   -10.8914     0.0157 H       
  58 H58            0.0243   -11.3585    -1.3687 H       
  59 H59            3.7072    -9.5008    -2.0763 H       
  60 H60            3.1959    -9.8047    -0.3983 H       
  61 H61            1.8245   -12.5768    -2.4141 H       
  62 H62            3.4011   -11.7872    -2.6570 H       
  63 H63            2.8592   -12.2060    -1.0141 H       
@<TRIPOS>BOND
   1    1    2 1
   2    1    9 ar
   3    1   10 ar
   4    2    3 1
   5    2    6 1
   6    3    4 2
   7    4    5 1
   8    4    8 1
   9    5    6 2
  10    6    7 1
  11    7   33 1
  12    7   34 1
  13    8   20 1
  14    8   35 1
  15    9   13 ar
  16   10   11 ar
  17   11   12 ar
  18   11   14 1
  19   12   13 ar
  20   12   19 1
  21   13   36 1
  22   14   15 1
  23   14   37 1
  24   14   38 1
  25   15   16 1
  26   15   39 1
  27   15   40 1
  28   16   17 1
  29   16   41 1
  30   16   42 1
  31   17   18 1
  32   17   43 1
  33   17   44 1
  34   18   19 1
  35   18   45 1
  36   18   46 1
  37   19   47 1
  38   19   48 1
  39   20   21 ar
  40   20   25 ar
  41   21   22 ar
  42   21   49 1
  43   22   23 ar
  44   22   50 1
  45   23   24 ar
  46   23   26 1
  47   24   25 ar
  48   24   51 1
  49   25   52 1
  50   26   27 1
  51   26   28 1
  52   27   31 1
  53   27   53 1
  54   27   54 1
  55   28   29 1
  56   28   55 1
  57   28   56 1
  58   29   30 1
  59   29   57 1
  60   29   58 1
  61   30   31 1
  62   30   32 1
  63   31   59 1
  64   31   60 1
  65   32   61 1
  66   32   62 1
  67   32   63 1

#	End of record

