#	Name: ASD01884025
#	Creating user name:	WinNT
#	Creation time:	15. 06. 2019 19:47

#	Modifying user name:	WinNT
#	Modification time:	15. 06. 2019 19:47

#	Program:	/corina/corina34_cracker 3.40 0067  02.08.2006

@<TRIPOS>MOLECULE
ASD01884025
  47   50    0    0    0
SMALL
NO_CHARGES


@<TRIPOS>ATOM
   1 C1            -0.0019     1.3536     0.1973 C.2     
   2 C2            -0.0291    -0.0491     0.1189 C.2     
   3 C3            -1.2280    -0.6838    -0.0611 C.2     
   4 C4            -2.4117     0.0790    -0.1644 C.2     
   5 C5            -2.3625     1.4231    -0.0864 C.2     
   6 N6            -1.1729     2.0652     0.0989 N.pl3   
   7 C7            -0.8206     3.3782     0.2110 C.2     
   8 N8             0.4763     3.4252     0.3650 N.2     
   9 N9             0.9705     2.2372     0.3635 N.2     
  10 N10           -1.2802    -2.0721    -0.1423 N.pl3   
  11 C11           -1.7560     4.5589     0.1650 C.3     
  12 C12            1.2461    -0.8444     0.2310 C.3     
  13 C13           -2.2401     4.8814     1.5801 C.3     
  14 C14           -3.1107     6.1263     1.7623 C.3     
  15 C15           -3.7360     4.7337     1.8657 C.3     
  16 F16            1.7687    -1.0704    -1.0469 F       
  17 F17            2.1753    -0.1305     0.9953 F       
  18 F18            0.9780    -2.0707     0.8487 F       
  19 C19           -1.9104    -2.9803     0.8211 C.3     
  20 C20           -1.7167    -4.3885     0.3182 C.ar    
  21 C21           -1.0161    -4.3452    -0.8712 C.ar    
  22 C22           -0.7209    -2.9062    -1.2108 C.3     
  23 C23           -0.7107    -5.5201    -1.5360 C.ar    
  24 C24           -1.1061    -6.7360    -1.0117 C.ar    
  25 C25           -1.8072    -6.7793     0.1786 C.ar    
  26 C26           -2.1126    -5.6065     0.8427 C.ar    
  27 H27           -3.3604    -0.4171    -0.3068 H       
  28 H28           -3.2736     1.9974    -0.1669 H       
  29 H29           -1.2317     5.4220    -0.2452 H       
  30 H30           -2.6119     4.3200    -0.4663 H       
  31 H31           -1.5469     4.6302     2.3828 H       
  32 H32           -2.9905     6.6939     2.6851 H       
  33 H33           -3.3386     6.7156     0.8740 H       
  34 H34           -4.3751     4.4068     1.0456 H       
  35 H35           -4.0271     4.3851     2.8566 H       
  36 H36           -1.4387    -2.8685     1.7974 H       
  37 H37           -2.9749    -2.7581     0.8965 H       
  38 H38           -1.1796    -2.6505    -2.1660 H       
  39 H39            0.3569    -2.7529    -1.2647 H       
  40 H40           -0.1628    -5.4865    -2.4661 H       
  41 H41           -0.8677    -7.6519    -1.5320 H       
  42 H42           -2.1169    -7.7290     0.5890 H       
  43 H43           -2.6605    -5.6406     1.7728 H       
  44 N44            7.7137    12.7245     8.6309 N.3     
  45 H45            7.7274    11.7156     8.6254 H       
  46 H46            8.6506    13.0988     8.6240 H       
  47 H47            7.1753    13.0830     7.8566 H       
@<TRIPOS>BOND
   1    1    2 1
   2    1    9 2
   3    1    6 1
   4    2    3 2
   5    2   12 1
   6    3    4 1
   7    3   10 1
   8    4    5 2
   9    4   27 1
  10    5    6 1
  11    5   28 1
  12    6    7 1
  13    7    8 2
  14    7   11 1
  15    8    9 1
  16   10   19 1
  17   10   22 1
  18   11   13 1
  19   11   29 1
  20   11   30 1
  21   12   16 1
  22   12   17 1
  23   12   18 1
  24   13   14 1
  25   13   15 1
  26   13   31 1
  27   14   15 1
  28   14   32 1
  29   14   33 1
  30   15   34 1
  31   15   35 1
  32   19   20 1
  33   19   36 1
  34   19   37 1
  35   20   26 ar
  36   20   21 ar
  37   21   22 1
  38   21   23 ar
  39   22   38 1
  40   22   39 1
  41   23   24 ar
  42   23   40 1
  43   24   25 ar
  44   24   41 1
  45   25   26 ar
  46   25   42 1
  47   26   43 1
  48   44   45 1
  49   44   46 1
  50   44   47 1

#	End of record

