#	Name: ASD01912655
#	Creating user name:	WinNT
#	Creation time:	15. 06. 2019 20:00

#	Modifying user name:	WinNT
#	Modification time:	15. 06. 2019 20:00

#	Program:	/corina/corina34_cracker 3.40 0067  02.08.2006

@<TRIPOS>MOLECULE
ASD01912655
  37   40    0    0    0
SMALL
NO_CHARGES


@<TRIPOS>ATOM
   1 C1            -0.0261     1.3424     0.2517 C.2     
   2 N2             0.0029    -0.0021    -0.0157 N.pl3   
   3 C3            -1.1915    -0.6647    -0.2563 C.2     
   4 C4            -2.3527    -0.0233    -0.2320 C.2     
   5 N5            -2.4358     1.3306     0.0325 N.am    
   6 C6            -1.3125     2.0402     0.2815 C.2     
   7 C7             1.2836     1.7381     0.4491 C.2     
   8 C8             2.0432     0.5809     0.2850 C.2     
   9 N9             1.2235    -0.4067     0.0129 N.2     
  10 O10           -1.3687     3.2339     0.5167 O.2     
  11 C11           -3.6830     1.9659     0.0473 C.ar    
  12 C12            3.5426     0.4818     0.3996 C.3     
  13 O13            4.0830     1.7686     0.7063 O.3     
  14 C14            5.4322     1.8542     0.8445 C.ar    
  15 C15            6.0243     3.0730     1.1421 C.ar    
  16 C16            7.3960     3.1574     1.2821 C.ar    
  17 C17            8.1788     2.0285     1.1257 C.ar    
  18 C18            7.5912     0.8126     0.8286 C.ar    
  19 C19            6.2193     0.7218     0.6938 C.ar    
  20 C20           -4.6220     1.6740     1.0335 C.ar    
  21 N21           -5.7890     2.2960     1.0123 N.ar    
  22 C22           -6.0676     3.1803     0.0755 C.ar    
  23 N23           -5.2064     3.4838    -0.8750 N.ar    
  24 C24           -4.0153     2.9106    -0.9204 C.ar    
  25 H25           -1.1760    -1.7236    -0.4680 H       
  26 H26           -3.2603    -0.5759    -0.4251 H       
  27 H27            1.6414     2.7305     0.6803 H       
  28 H28            3.8007    -0.2193     1.1934 H       
  29 H29            3.9567     0.1295    -0.5451 H       
  30 H30            5.4133     3.9552     1.2640 H       
  31 H31            7.8574     4.1061     1.5134 H       
  32 H32            9.2510     2.0965     1.2355 H       
  33 H33            8.2048    -0.0676     0.7063 H       
  34 H34            5.7608    -0.2281     0.4617 H       
  35 H35           -4.4006     0.9502     1.8039 H       
  36 H36           -7.0299     3.6704     0.0869 H       
  37 H37           -3.3145     3.1643    -1.7020 H       
@<TRIPOS>BOND
   1    1    2 1
   2    1    7 2
   3    1    6 1
   4    2    3 1
   5    2    9 1
   6    3    4 2
   7    3   25 1
   8    4    5 1
   9    4   26 1
  10    5    6 am
  11    5   11 1
  12    6   10 2
  13    7    8 1
  14    7   27 1
  15    8    9 2
  16    8   12 1
  17   11   20 ar
  18   11   24 ar
  19   12   13 1
  20   12   28 1
  21   12   29 1
  22   13   14 1
  23   14   15 ar
  24   14   19 ar
  25   15   16 ar
  26   15   30 1
  27   16   17 ar
  28   16   31 1
  29   17   18 ar
  30   17   32 1
  31   18   19 ar
  32   18   33 1
  33   19   34 1
  34   20   21 ar
  35   20   35 1
  36   21   22 ar
  37   22   23 ar
  38   22   36 1
  39   23   24 ar
  40   24   37 1

#	End of record

