#	Name: ASD05940125
#	Creating user name:	WinNT
#	Creation time:	15. 06. 2019 21:04

#	Modifying user name:	WinNT
#	Modification time:	15. 06. 2019 21:04

#	Program:	/corina/corina34_cracker 3.40 0067  02.08.2006

@<TRIPOS>MOLECULE
ASD05940125
  61   63    0    0    0
SMALL
NO_CHARGES


@<TRIPOS>ATOM
   1 O1            -2.2650    -1.1326    -1.4761 O.3     
   2 C2            -0.9121    -1.5065    -1.2081 C.3     
   3 C3            -0.0184    -0.2661    -1.2698 C.3     
   4 N4            -0.0561     0.2976    -2.6258 N.3     
   5 C5             0.4804     1.6650    -2.6426 C.3     
   6 C6             0.6648    -0.5625    -3.5737 C.3     
   7 C7             0.4011    -0.0911    -4.9805 C.2     
   8 C8             1.1551     0.8510    -5.6877 C.2     
   9 C9             2.3750     1.5717    -5.1745 C.3     
  10 C10           -0.6037    -0.5089    -5.7849 C.2     
  11 N11           -0.4929     0.1500    -6.9574 N.pl3   
  12 N12            0.6189     0.9979    -6.8721 N.2     
  13 C13           -1.6571    -1.5280    -5.4345 C.3     
  14 C14           -0.8221    -2.1310     0.1857 C.3     
  15 O15           -1.5635    -3.3524     0.2092 O.3     
  16 C16           -1.5860    -4.0386     1.3831 C.ar    
  17 C17           -2.2886    -5.2360     1.4775 C.ar    
  18 C18           -2.3085    -5.9314     2.6759 C.ar    
  19 C19           -1.6313    -5.4353     3.7743 C.ar    
  20 C20           -0.9336    -4.2454     3.6806 C.ar    
  21 C21           -0.9046    -3.5498     2.4862 C.ar    
  22 C22           -1.3769     0.0017    -8.1162 C.3     
  23 C23           -0.7755    -0.9848    -9.0838 C.ar    
  24 C24           -1.1612    -2.3113    -9.0474 C.ar    
  25 C25           -0.6095    -3.2165    -9.9350 C.ar    
  26 C26            0.3285    -2.7954   -10.8589 C.ar    
  27 C27            0.7154    -1.4689   -10.8959 C.ar    
  28 C28            0.1589    -0.5614   -10.0124 C.ar    
  29 Cl29           0.6440     1.1048   -10.0586 Cl      
  30 O30           -2.9546    -5.7224     0.3962 O.3     
  31 C31           -3.6542    -6.9568     0.5665 C.3     
  32 H32           -2.6264    -0.4892    -0.8512 H       
  33 H33           -0.5808    -2.2303    -1.9526 H       
  34 H34           -0.3780     0.4765    -0.5575 H       
  35 H35            1.0057    -0.5433    -1.0199 H       
  36 H36            1.5413     1.6421    -2.3934 H       
  37 H37            0.3497     2.0944    -3.6359 H       
  38 H38           -0.0516     2.2731    -1.9110 H       
  39 H39            1.7342    -0.5130    -3.3684 H       
  40 H40            0.3212    -1.5912    -3.4647 H       
  41 H41            3.2670     0.9933    -5.4154 H       
  42 H42            2.4411     2.5535    -5.6433 H       
  43 H43            2.2994     1.6896    -4.0935 H       
  44 H44           -2.5395    -1.0195    -5.0460 H       
  45 H45           -1.9267    -2.0933    -6.3266 H       
  46 H46           -1.2670    -2.2082    -4.6774 H       
  47 H47            0.2214    -2.3348     0.4259 H       
  48 H48           -1.2360    -1.4406     0.9207 H       
  49 H49           -2.8533    -6.8608     2.7519 H       
  50 H50           -1.6476    -5.9783     4.7077 H       
  51 H51           -0.4061    -3.8609     4.5410 H       
  52 H52           -0.3589    -2.6205     2.4157 H       
  53 H53           -2.3507    -0.3604    -7.7864 H       
  54 H54           -1.4958     0.9670    -8.6084 H       
  55 H55           -1.8935    -2.6410    -8.3254 H       
  56 H56           -0.9112    -4.2531    -9.9063 H       
  57 H57            0.7593    -3.5031   -11.5517 H       
  58 H58            1.4489    -1.1401   -11.6173 H       
  59 H59           -4.4064    -6.8435     1.3471 H       
  60 H60           -4.1405    -7.2309    -0.3697 H       
  61 H61           -2.9491    -7.7376     0.8518 H       
@<TRIPOS>BOND
   1    1    2 1
   2    1   32 1
   3    2    3 1
   4    2   14 1
   5    2   33 1
   6    3    4 1
   7    3   34 1
   8    3   35 1
   9    4    5 1
  10    4    6 1
  11    5   36 1
  12    5   37 1
  13    5   38 1
  14    6    7 1
  15    6   39 1
  16    6   40 1
  17    7    8 1
  18    7   10 2
  19    8    9 1
  20    8   12 2
  21    9   41 1
  22    9   42 1
  23    9   43 1
  24   10   11 1
  25   10   13 1
  26   11   12 1
  27   11   22 1
  28   13   44 1
  29   13   45 1
  30   13   46 1
  31   14   15 1
  32   14   47 1
  33   14   48 1
  34   15   16 1
  35   16   17 ar
  36   16   21 ar
  37   17   18 ar
  38   17   30 1
  39   18   19 ar
  40   18   49 1
  41   19   20 ar
  42   19   50 1
  43   20   21 ar
  44   20   51 1
  45   21   52 1
  46   22   23 1
  47   22   53 1
  48   22   54 1
  49   23   24 ar
  50   23   28 ar
  51   24   25 ar
  52   24   55 1
  53   25   26 ar
  54   25   56 1
  55   26   27 ar
  56   26   57 1
  57   27   28 ar
  58   27   58 1
  59   28   29 1
  60   30   31 1
  61   31   59 1
  62   31   60 1
  63   31   61 1

#	End of record

