#	Name: ASD07300472
#	Creating user name:	WinNT
#	Creation time:	15. 06. 2019 21:09

#	Modifying user name:	WinNT
#	Modification time:	15. 06. 2019 21:09

#	Program:	/corina/corina34_cracker 3.40 0067  02.08.2006

@<TRIPOS>MOLECULE
ASD07300472
  35   36    0    0    0
SMALL
NO_CHARGES


@<TRIPOS>ATOM
   1 N1            -0.0178     1.4612     0.0101 N.am    
   2 C2             0.0021    -0.0041     0.0020 C.3     
   3 C3             1.4910    -0.3869    -0.0143 C.3     
   4 C4             2.2242     0.9356    -0.0142 C.ar    
   5 C5             3.5760     1.2220    -0.0255 C.ar    
   6 C6             4.0075     2.5352    -0.0226 C.ar    
   7 C7             3.0824     3.5631    -0.0082 C.ar    
   8 C8             1.7330     3.2821     0.0036 C.ar    
   9 C9             1.2895     1.9582     0.0003 C.ar    
  10 C10           -1.1324     2.2188     0.0196 C.2     
  11 O11           -2.2265     1.6900     0.0221 O.2     
  12 O12           -1.0337     3.5616     0.0265 O.3     
  13 N13            5.4558     2.8404    -0.0343 N.pl3   
  14 O14            6.2692     1.9339    -0.0465 O.2     
  15 O15            5.8343     3.9982    -0.0317 O.2     
  16 C16           -2.2756     4.3138     0.0366 C.3     
  17 C17           -3.0794     3.9543     1.2879 C.3     
  18 C18           -1.9645     5.8118     0.0432 C.3     
  19 C19           -3.0916     3.9679    -1.2105 C.3     
  20 H20           -0.4787    -0.3937     0.8993 H       
  21 H21           -0.4958    -0.3841    -0.8901 H       
  22 H22            1.7452    -0.9626     0.8757 H       
  23 H23            1.7281    -0.9530    -0.9150 H       
  24 H24            4.2971     0.4181    -0.0364 H       
  25 H25            3.4184     4.5896    -0.0059 H       
  26 H26            1.0158     4.0894     0.0155 H       
  27 H27           -2.4981     4.2008     2.1764 H       
  28 H28           -4.0117     4.5190     1.2955 H       
  29 H29           -3.3011     2.8871     1.2831 H       
  30 H30           -1.3919     6.0679    -0.8482 H       
  31 H31           -2.8968     6.3765     0.0509 H       
  32 H32           -1.3832     6.0583     0.9317 H       
  33 H33           -3.3133     2.9007    -1.2153 H       
  34 H34           -4.0239     4.5326    -1.2029 H       
  35 H35           -2.5190     4.2240    -2.1020 H       
@<TRIPOS>BOND
   1    1    2 1
   2    1    9 1
   3    1   10 am
   4    2    3 1
   5    2   20 1
   6    2   21 1
   7    3    4 1
   8    3   22 1
   9    3   23 1
  10    4    5 ar
  11    4    9 ar
  12    5    6 ar
  13    5   24 1
  14    6    7 ar
  15    6   13 1
  16    7    8 ar
  17    7   25 1
  18    8    9 ar
  19    8   26 1
  20   10   11 2
  21   10   12 1
  22   12   16 1
  23   13   14 2
  24   13   15 2
  25   16   17 1
  26   16   19 1
  27   16   18 1
  28   17   27 1
  29   17   28 1
  30   17   29 1
  31   18   30 1
  32   18   31 1
  33   18   32 1
  34   19   33 1
  35   19   34 1
  36   19   35 1

#	End of record

