#	Name: ASD04550033
#	Creating user name:	WinNT
#	Creation time:	15. 06. 2019 20:49

#	Modifying user name:	WinNT
#	Modification time:	15. 06. 2019 20:49

#	Program:	/corina/corina34_cracker 3.40 0067  02.08.2006

@<TRIPOS>MOLECULE
ASD04550033
  35   36    0    0    0
SMALL
NO_CHARGES


@<TRIPOS>ATOM
   1 C1            -0.0167     1.3779     0.0096 C.ar    
   2 C2             0.0021    -0.0041     0.0020 C.ar    
   3 C3            -1.1857    -0.7116     0.0095 C.ar    
   4 C4            -2.3919    -0.0369     0.0251 C.ar    
   5 C5            -2.4106     1.3455     0.0336 C.ar    
   6 C6            -1.2232     2.0528     0.0305 C.ar    
   7 C7            -3.7258     2.0812     0.0501 C.3     
   8 C8            -4.5344     1.7082    -1.1941 C.3     
   9 C9             1.2780     2.1491     0.0014 C.3     
  10 C10            1.8492     2.1867     1.3955 C.ar    
  11 O11            2.2071     1.5108    -0.8770 O.3     
  12 C12            1.5933     3.2675     2.2183 C.ar    
  13 C13            2.1172     3.3020     3.4971 C.ar    
  14 C14            2.8968     2.2555     3.9531 C.ar    
  15 C15            3.1519     1.1742     3.1305 C.ar    
  16 C16            2.6244     1.1377     1.8533 C.ar    
  17 C17           -4.4997     1.6990     1.2854 C.2     
  18 O18           -4.0314     0.9101     2.0717 O.2     
  19 O19           -5.7093     2.2349     1.5121 O.3     
  20 H20            0.9446    -0.5313    -0.0101 H       
  21 H21           -1.1711    -1.7915     0.0029 H       
  22 H22           -3.3198    -0.5895     0.0302 H       
  23 H23           -1.2378     3.1327     0.0372 H       
  24 H24           -3.5412     3.1554     0.0549 H       
  25 H25           -5.4856     2.2403    -1.1822 H       
  26 H26           -3.9746     1.9847    -2.0876 H       
  27 H27           -4.7190     0.6340    -1.1989 H       
  28 H28            1.0927     3.1666    -0.3429 H       
  29 H29            2.4190     0.6000    -0.6308 H       
  30 H30            0.9843     4.0852     1.8621 H       
  31 H31            1.9179     4.1468     4.1397 H       
  32 H32            3.3067     2.2827     4.9519 H       
  33 H33            3.7612     0.3567     3.4867 H       
  34 H34            2.8237     0.2929     1.2107 H       
  35 H35           -6.1676     1.9592     2.3178 H       
@<TRIPOS>BOND
   1    1    2 ar
   2    1    9 1
   3    1    6 ar
   4    2    3 ar
   5    2   20 1
   6    3    4 ar
   7    3   21 1
   8    4    5 ar
   9    4   22 1
  10    5    6 ar
  11    5    7 1
  12    6   23 1
  13    7    8 1
  14    7   17 1
  15    7   24 1
  16    8   25 1
  17    8   26 1
  18    8   27 1
  19    9   10 1
  20    9   11 1
  21    9   28 1
  22   10   12 ar
  23   10   16 ar
  24   11   29 1
  25   12   13 ar
  26   12   30 1
  27   13   14 ar
  28   13   31 1
  29   14   15 ar
  30   14   32 1
  31   15   16 ar
  32   15   33 1
  33   16   34 1
  34   17   18 2
  35   17   19 1
  36   19   35 1

#	End of record

