#	Name: ASD05740122
#	Creating user name:	WinNT
#	Creation time:	15. 06. 2019 21:02

#	Modifying user name:	WinNT
#	Modification time:	15. 06. 2019 21:02

#	Program:	/corina/corina34_cracker 3.40 0067  02.08.2006

@<TRIPOS>MOLECULE
ASD05740122
  54   57    0    0    0
SMALL
NO_CHARGES


@<TRIPOS>ATOM
   1 C1            -0.6933     0.8932    -0.7165 C.3     
   2 C2             0.9637     0.2654    -3.6685 C.ar    
   3 C3            -0.2088    -1.0710     0.8912 C.2     
   4 C4            -0.0625    -2.5224     1.0895 C.2     
   5 C5            -0.5304    -0.5808    -0.4485 C.2     
   6 C6            -0.6786    -1.4926    -1.4441 C.2     
   7 C7            -0.5257    -2.8688    -1.1882 C.2     
   8 O8            -0.2307    -3.3503     0.0299 O.3     
   9 C9            -1.0107    -1.0264    -2.8382 C.3     
  10 C10            0.2561    -0.9202    -3.6475 C.ar    
  11 C11            0.7085    -2.0102    -4.3687 C.ar    
  12 O12           -0.6672    -3.6537    -2.1084 O.2     
  13 C13            2.1315     0.3624    -4.4149 C.ar    
  14 C14            2.5834    -0.7344    -5.1373 C.ar    
  15 C15            1.8705    -1.9172    -5.1122 C.ar    
  16 N16            2.8497     1.5601    -4.4384 N.am    
  17 S17            3.4205     2.1552    -5.8745 S.o2    
  18 O18            4.0671     3.3837    -5.5711 O.2     
  19 O19            4.0726     1.0739    -6.5261 O.2     
  20 C20            0.2300    -2.6986     2.3980 C.2     
  21 C21            0.0172    -0.4878     2.1146 C.2     
  22 N22            0.4523    -3.9313     3.0231 N.pl3   
  23 C23            0.9288    -5.0036     2.2888 C.ar    
  24 N24            1.0164    -6.1941     2.8646 N.ar    
  25 N25            1.2816    -4.8166     1.0251 N.ar    
  26 C26            1.7407    -5.8200     0.2958 C.ar    
  27 C27            1.8505    -7.0776     0.8687 C.ar    
  28 C28            1.4675    -7.2392     2.1911 C.ar    
  29 N29            0.2739    -1.4767     3.0119 N.pl3   
  30 C30            0.5625    -1.2636     4.4323 C.3     
  31 N31            2.1046     2.5367    -6.8046 N.am    
  32 C32            1.1945     3.6046    -6.3833 C.3     
  33 H33           -0.6299     1.4425     0.2229 H       
  34 H34            0.0964     1.2298    -1.3882 H       
  35 H35           -1.6642     1.0735    -1.1780 H       
  36 H36            0.6074     1.1176    -3.1090 H       
  37 H37           -1.6842    -1.7419    -3.3098 H       
  38 H38           -1.4936    -0.0504    -2.7895 H       
  39 H39            0.1529    -2.9362    -4.3508 H       
  40 H40            3.4912    -0.6626    -5.7179 H       
  41 H41            2.2213    -2.7705    -5.6737 H       
  42 H42            3.0141     2.0433    -3.6135 H       
  43 H43           -0.0108     0.5706     2.3277 H       
  44 H44            0.2725    -4.0341     3.9707 H       
  45 H45            2.0263    -5.6616    -0.7336 H       
  46 H46            2.2219    -7.9143     0.2957 H       
  47 H47            1.5406    -8.2060     2.6670 H       
  48 H48            1.6241    -1.0518     4.5595 H       
  49 H49           -0.0228    -0.4206     4.7995 H       
  50 H50            0.3009    -2.1600     4.9946 H       
  51 H51            1.9364     2.0531    -7.6285 H       
  52 H52            0.3944     3.7104    -7.1159 H       
  53 H53            0.7671     3.3556    -5.4120 H       
  54 H54            1.7448     4.5425    -6.3083 H       
@<TRIPOS>BOND
   1    1    5 1
   2    1   33 1
   3    1   34 1
   4    1   35 1
   5    2   10 ar
   6    2   13 ar
   7    2   36 1
   8    3    4 1
   9    3    5 1
  10    3   21 2
  11    4   20 2
  12    4    8 1
  13    5    6 2
  14    6    7 1
  15    6    9 1
  16    7    8 1
  17    7   12 2
  18    9   10 1
  19    9   37 1
  20    9   38 1
  21   10   11 ar
  22   11   15 ar
  23   11   39 1
  24   13   14 ar
  25   13   16 1
  26   14   15 ar
  27   14   40 1
  28   15   41 1
  29   16   17 am
  30   16   42 1
  31   17   18 2
  32   17   19 2
  33   17   31 am
  34   20   29 1
  35   20   22 1
  36   21   29 1
  37   21   43 1
  38   22   23 1
  39   22   44 1
  40   23   24 ar
  41   23   25 ar
  42   24   28 ar
  43   25   26 ar
  44   26   27 ar
  45   26   45 1
  46   27   28 ar
  47   27   46 1
  48   28   47 1
  49   29   30 1
  50   30   48 1
  51   30   49 1
  52   30   50 1
  53   31   32 1
  54   31   51 1
  55   32   52 1
  56   32   53 1
  57   32   54 1

#	End of record

