#	Name: ASD00841884
#	Creating user name:	WinNT
#	Creation time:	15. 06. 2019 18:43

#	Modifying user name:	WinNT
#	Modification time:	15. 06. 2019 18:43

#	Program:	/corina/corina34_cracker 3.40 0067  02.08.2006

@<TRIPOS>MOLECULE
ASD00841884
  98  103    0    0    0
SMALL
NO_CHARGES


@<TRIPOS>ATOM
   1 C1             1.0190     1.5605    -0.3195 C.ar    
   2 C2             1.3238     0.2343    -0.5883 C.ar    
   3 C3             1.2516    -0.7109     0.4250 C.ar    
   4 C4             0.8766    -0.3292     1.6984 C.ar    
   5 C5             0.5727     0.9935     1.9637 C.ar    
   6 C6             0.6443     1.9372     0.9560 C.ar    
   7 C7             1.5817    -2.1527     0.1364 C.3     
   8 C8             1.3102    -3.0126     1.3524 C.2     
   9 C9             0.7788    -2.6547    -1.0653 C.3     
  10 C10           -0.6906    -2.4304    -0.8168 C.2     
  11 N11           -1.6009    -2.8899    -1.6981 N.am    
  12 O12           -1.0539    -1.8363     0.1761 O.2     
  13 C13           -3.0306    -2.5859    -1.5342 C.3     
  14 C14           -3.5630    -2.0220    -2.8559 C.3     
  15 N15           -3.2473    -2.9555    -3.9454 N.3     
  16 C16           -1.7958    -3.1005    -4.1190 C.3     
  17 C17           -1.1903    -3.7035    -2.8525 C.3     
  18 C18           -3.8883    -2.5373    -5.1993 C.3     
  19 C19           -3.4383    -3.4590    -6.3362 C.3     
  20 C20           -4.1558    -3.0567    -7.6267 C.3     
  21 N21           -5.6078    -3.1607    -7.4339 N.3     
  22 C22           -6.0699    -2.2496    -6.3789 C.3     
  23 C23           -5.4096    -2.6278    -5.0512 C.3     
  24 C24           -6.3249    -2.9158    -8.6923 C.3     
  25 O25            0.2382    -3.1725     1.8968 O.2     
  26 N26            2.4799    -3.5651     1.7155 N.am    
  27 C27            3.0642    -2.3180    -0.1073 C.ar    
  28 C28            3.5290    -3.1781     0.8800 C.ar    
  29 C29            3.9200    -1.8014    -1.0538 C.ar    
  30 C30            5.2629    -2.1385    -1.0287 C.ar    
  31 C31            5.7392    -2.9955    -0.0493 C.ar    
  32 C32            4.8806    -3.5142     0.9010 C.ar    
  33 Cl33           6.3461    -1.4903    -2.2205 Cl      
  34 F34            7.0491    -3.3253    -0.0235 F       
  35 C35            2.4017    -6.2267     2.4115 C.ar    
  36 C36            1.1576    -6.6019     1.9252 C.ar    
  37 C37            3.4426    -7.1356     2.4247 C.ar    
  38 C38            3.2476    -8.4196     1.9536 C.ar    
  39 C39            2.0049    -8.7999     1.4662 C.ar    
  40 C40            0.9592    -7.8902     1.4523 C.ar    
  41 O41            1.8135   -10.0631     1.0033 O.3     
  42 O42            0.1343    -5.7078     1.9129 O.3     
  43 C43           -1.1188    -6.1629     1.3983 C.3     
  44 C44            2.9351   -10.9474     1.0481 C.3     
  45 C45           -7.8019    -3.2739    -8.5157 C.3     
  46 C46           -8.5488    -3.0188    -9.8265 C.3     
  47 S47            2.6567    -4.5877     3.0060 S.o2    
  48 O48            4.0210    -4.5099     3.3957 O.2     
  49 O49            1.5790    -4.3090     3.8893 O.2     
  50 O50            1.6922    -0.1388    -1.8420 O.3     
  51 C51            2.1789     0.2892    -4.1702 C.3     
  52 C52            1.6362     0.8628    -2.8597 C.3     
  53 H53            1.0787     2.2988    -1.1054 H       
  54 H54            0.8202    -1.0645     2.4874 H       
  55 H55            0.2789     1.2899     2.9598 H       
  56 H56            0.4065     2.9696     1.1657 H       
  57 H57            1.0834    -2.1102    -1.9590 H       
  58 H58            0.9648    -3.7193    -1.2074 H       
  59 H59           -3.5720    -3.4973    -1.2805 H       
  60 H60           -3.1596    -1.8476    -0.7428 H       
  61 H61           -4.6433    -1.8942    -2.7880 H       
  62 H62           -3.0942    -1.0584    -3.0553 H       
  63 H63           -1.5946    -3.7549    -4.9672 H       
  64 H64           -1.3517    -2.1218    -4.3009 H       
  65 H65           -0.1033    -3.7068    -2.9321 H       
  66 H66           -1.5538    -4.7228    -2.7223 H       
  67 H67           -3.6042    -1.5103    -5.4288 H       
  68 H68           -2.3611    -3.3667    -6.4747 H       
  69 H69           -3.6869    -4.4909    -6.0881 H       
  70 H70           -3.8959    -2.0293    -7.8816 H       
  71 H71           -3.8484    -3.7201    -8.4351 H       
  72 H72           -5.8011    -1.2260    -6.6397 H       
  73 H73           -7.1528    -2.3269    -6.2810 H       
  74 H74           -5.6892    -3.6466    -4.7829 H       
  75 H75           -5.7408    -1.9417    -4.2716 H       
  76 H76           -6.2360    -1.8635    -8.9624 H       
  77 H77           -5.8937    -3.5312    -9.4819 H       
  78 H78            3.5444    -1.1342    -1.8155 H       
  79 H79            5.2583    -4.1813     1.6618 H       
  80 H80            4.4103    -6.8416     2.8036 H       
  81 H81            4.0628    -9.1279     1.9643 H       
  82 H82           -0.0086    -8.1843     1.0737 H       
  83 H83           -1.4722    -7.0044     1.9942 H       
  84 H84           -1.8467    -5.3530     1.4456 H       
  85 H85           -0.9931    -6.4785     0.3626 H       
  86 H86            3.7467   -10.5355     0.4483 H       
  87 H87            3.2674   -11.0608     2.0800 H       
  88 H88            2.6469   -11.9204     0.6502 H       
  89 H89           -7.8909    -4.3262    -8.2457 H       
  90 H90           -8.2331    -2.6585    -7.7262 H       
  91 H91           -8.1176    -3.6342   -10.6160 H       
  92 H92           -9.6010    -3.2739    -9.7007 H       
  93 H93           -8.4598    -1.9665   -10.0965 H       
  94 H94            3.1811    -0.1066    -4.0062 H       
  95 H95            1.5242    -0.5111    -4.5152 H       
  96 H96            2.2179     1.0766    -4.9229 H       
  97 H97            0.6028     1.1789    -3.0019 H       
  98 H98            2.2402     1.7192    -2.5603 H       
@<TRIPOS>BOND
   1    1    2 ar
   2    1    6 ar
   3    1   53 1
   4    2    3 ar
   5    2   50 1
   6    3    4 ar
   7    3    7 1
   8    4    5 ar
   9    4   54 1
  10    5    6 ar
  11    5   55 1
  12    6   56 1
  13    7    8 1
  14    7    9 1
  15    7   27 1
  16    8   25 2
  17    8   26 am
  18    9   10 1
  19    9   57 1
  20    9   58 1
  21   10   11 am
  22   10   12 2
  23   11   13 1
  24   11   17 1
  25   13   14 1
  26   13   59 1
  27   13   60 1
  28   14   15 1
  29   14   61 1
  30   14   62 1
  31   15   16 1
  32   15   18 1
  33   16   17 1
  34   16   63 1
  35   16   64 1
  36   17   65 1
  37   17   66 1
  38   18   19 1
  39   18   23 1
  40   18   67 1
  41   19   20 1
  42   19   68 1
  43   19   69 1
  44   20   21 1
  45   20   70 1
  46   20   71 1
  47   21   22 1
  48   21   24 1
  49   22   23 1
  50   22   72 1
  51   22   73 1
  52   23   74 1
  53   23   75 1
  54   24   45 1
  55   24   76 1
  56   24   77 1
  57   26   47 am
  58   26   28 1
  59   27   28 ar
  60   27   29 ar
  61   28   32 ar
  62   29   30 ar
  63   29   78 1
  64   30   31 ar
  65   30   33 1
  66   31   32 ar
  67   31   34 1
  68   32   79 1
  69   35   36 ar
  70   35   37 ar
  71   35   47 1
  72   36   42 1
  73   36   40 ar
  74   37   38 ar
  75   37   80 1
  76   38   39 ar
  77   38   81 1
  78   39   40 ar
  79   39   41 1
  80   40   82 1
  81   41   44 1
  82   42   43 1
  83   43   83 1
  84   43   84 1
  85   43   85 1
  86   44   86 1
  87   44   87 1
  88   44   88 1
  89   45   46 1
  90   45   89 1
  91   45   90 1
  92   46   91 1
  93   46   92 1
  94   46   93 1
  95   47   48 2
  96   47   49 2
  97   50   52 1
  98   51   52 1
  99   51   94 1
 100   51   95 1
 101   51   96 1
 102   52   97 1
 103   52   98 1

#	End of record

