#	Name: ASD04590458
#	Creating user name:	WinNT
#	Creation time:	15. 06. 2019 20:50

#	Modifying user name:	WinNT
#	Modification time:	15. 06. 2019 20:50

#	Program:	/corina/corina34_cracker 3.40 0067  02.08.2006

@<TRIPOS>MOLECULE
ASD04590458
  60   63    0    0    0
SMALL
NO_CHARGES


@<TRIPOS>ATOM
   1 C1            -0.0169     1.3923     0.0097 C.ar    
   2 C2             0.0021    -0.0041     0.0020 C.ar    
   3 C3            -2.4013    -0.0379     0.0243 C.ar    
   4 C4            -2.4140     1.3672     0.0440 C.ar    
   5 C5            -1.2191     2.0735     0.0306 C.ar    
   6 N6            -3.6929    -0.4513     0.0437 N.2     
   7 C7            -4.4887     0.5899     0.0736 C.2     
   8 N8            -3.7458     1.7406     0.0751 N.pl3   
   9 C9            -5.9648     0.5311     0.1015 C.2     
  10 C10           -6.7501    -0.6449     0.1010 C.2     
  11 C11           -8.0529    -0.2719     0.1322 C.2     
  12 N12           -8.0970     1.0862     0.1518 N.pl3   
  13 N13           -6.7813     1.5659     0.1371 N.2     
  14 N14           -6.2668    -1.9632     0.0728 N.am    
  15 C15           -7.1305    -2.9978     0.0758 C.2     
  16 O16           -8.3284    -2.7898     0.1030 O.2     
  17 C17           -6.6227    -4.3825     0.0462 C.ar    
  18 C18           -1.1778    -0.7174     0.0090 C.ar    
  19 C19           -7.5172    -5.4614     0.0492 C.ar    
  20 O20            1.1915    -0.6643    -0.0129 O.3     
  21 C21            1.1408    -2.0924    -0.0201 C.3     
  22 O22            1.1536     2.0851     0.0022 O.3     
  23 C23            1.0634     3.5113     0.0108 C.3     
  24 C24           -7.0287    -6.7592     0.0207 C.ar    
  25 C25           -5.6672    -6.9856    -0.0105 C.ar    
  26 C26           -4.7796    -5.9218    -0.0132 C.ar    
  27 C27           -5.2475    -4.6260     0.0090 C.ar    
  28 O28           -8.8548    -5.2374     0.0804 O.3     
  29 C29           -9.7051    -6.3859     0.0815 C.3     
  30 C30           -3.2958    -6.1831    -0.0465 C.3     
  31 C31           -3.0440    -7.6920    -0.0728 C.3     
  32 C32           -2.6933    -5.5436    -1.2991 C.3     
  33 C33           -2.6435    -5.5788     1.1987 C.3     
  34 H34           -1.2289     3.1534     0.0368 H       
  35 H35           -4.0892     2.6476     0.0948 H       
  36 H36           -8.9045    -0.9361     0.1395 H       
  37 H37           -8.9005     1.6292     0.1747 H       
  38 H38           -5.3113    -2.1290     0.0511 H       
  39 H39           -1.1579    -1.7972     0.0023 H       
  40 H40            2.1549    -2.4919    -0.0319 H       
  41 H41            0.6229    -2.4420     0.8730 H       
  42 H42            0.6059    -2.4325    -0.9068 H       
  43 H43            0.5192     3.8462    -0.8723 H       
  44 H44            0.5362     3.8366     0.9076 H       
  45 H45            2.0660     3.9388     0.0035 H       
  46 H46           -7.7143    -7.5937     0.0233 H       
  47 H47           -5.2917    -7.9980    -0.0327 H       
  48 H48           -4.5520    -3.7998     0.0065 H       
  49 H49           -9.4899    -6.9964     0.9584 H       
  50 H50          -10.7470    -6.0666     0.1079 H       
  51 H51           -9.5270    -6.9707    -0.8209 H       
  52 H52           -3.5087    -8.1224    -0.9599 H       
  53 H53           -1.9708    -7.8809    -0.0968 H       
  54 H54           -3.4732    -8.1476     0.8196 H       
  55 H55           -2.8726    -4.4686    -1.2803 H       
  56 H56           -1.6201    -5.7325    -1.3231 H       
  57 H57           -3.1580    -5.9740    -2.1861 H       
  58 H58           -3.0727    -6.0344     2.0910 H       
  59 H59           -1.5703    -5.7678     1.1746 H       
  60 H60           -2.8229    -4.5039     1.2174 H       
@<TRIPOS>BOND
   1    1    2 ar
   2    1   22 1
   3    1    5 ar
   4    2   18 ar
   5    2   20 1
   6    3    4 ar
   7    3    6 1
   8    3   18 ar
   9    4    5 ar
  10    4    8 1
  11    5   34 1
  12    6    7 2
  13    7    8 1
  14    7    9 1
  15    8   35 1
  16    9   10 1
  17    9   13 2
  18   10   11 2
  19   10   14 1
  20   11   12 1
  21   11   36 1
  22   12   13 1
  23   12   37 1
  24   14   15 am
  25   14   38 1
  26   15   16 2
  27   15   17 1
  28   17   19 ar
  29   17   27 ar
  30   18   39 1
  31   19   24 ar
  32   19   28 1
  33   20   21 1
  34   21   40 1
  35   21   41 1
  36   21   42 1
  37   22   23 1
  38   23   43 1
  39   23   44 1
  40   23   45 1
  41   24   25 ar
  42   24   46 1
  43   25   26 ar
  44   25   47 1
  45   26   27 ar
  46   26   30 1
  47   27   48 1
  48   28   29 1
  49   29   49 1
  50   29   50 1
  51   29   51 1
  52   30   31 1
  53   30   32 1
  54   30   33 1
  55   31   52 1
  56   31   53 1
  57   31   54 1
  58   32   55 1
  59   32   56 1
  60   32   57 1
  61   33   58 1
  62   33   59 1
  63   33   60 1

#	End of record

