#	Name: ASD08070072
#	Creating user name:	WinNT
#	Creation time:	15. 06. 2019 21:14

#	Modifying user name:	WinNT
#	Modification time:	15. 06. 2019 21:14

#	Program:	/corina/corina34_cracker 3.40 0067  02.08.2006

@<TRIPOS>MOLECULE
ASD08070072
  40   40    0    0    0
SMALL
NO_CHARGES


@<TRIPOS>ATOM
   1 C1            -0.0166     1.3754     0.0096 C.ar    
   2 C2             0.0021    -0.0041     0.0020 C.ar    
   3 C3             1.1702     2.0864     0.0021 C.ar    
   4 C4             2.3828     1.4202    -0.0131 C.ar    
   5 C5             2.4156     0.0411    -0.0213 C.ar    
   6 C6             1.2219    -0.6823    -0.0133 C.ar    
   7 C7             1.2495    -2.1605    -0.0216 C.2     
   8 O8             2.3132    -2.7484    -0.0354 O.2     
   9 C9             0.2433    -4.8206    -1.4630 C.3     
  10 C10            0.1224    -4.3208    -0.0220 C.3     
  11 N11            0.0951    -2.8560    -0.0138 N.am    
  12 C12           -1.1496    -4.8503     0.5884 C.2     
  13 O13           -1.9925    -4.0830     0.9891 O.2     
  14 C14            1.1421     3.5931     0.0100 C.3     
  15 C15            1.5917    -4.3874    -2.0416 C.3     
  16 C16            2.7212    -5.0803    -1.2768 C.3     
  17 O17           -1.3462    -6.1745     0.6869 O.3     
  18 C18           -2.5944    -6.6129     1.2855 C.3     
  19 C19            1.6618    -4.7780    -3.5193 C.3     
  20 H20           -0.9598     1.9014     0.0169 H       
  21 H21           -0.9251    -0.5579     0.0083 H       
  22 H22            3.3057     1.9812    -0.0189 H       
  23 H23            3.3627    -0.4777    -0.0339 H       
  24 H24            0.1743    -5.9083    -1.4773 H       
  25 H25           -0.5624    -4.3975    -2.0630 H       
  26 H26            0.9767    -4.6715     0.5571 H       
  27 H27           -0.7538    -2.3868    -0.0028 H       
  28 H28            1.1450     3.9512     1.0395 H       
  29 H29            2.0203     3.9756    -0.5101 H       
  30 H30            0.2408     3.9424    -0.4936 H       
  31 H31            1.6978    -3.3067    -1.9461 H       
  32 H32            2.6713    -4.8020    -0.2241 H       
  33 H33            2.6151    -6.1609    -1.3724 H       
  34 H34            3.6819    -4.7717    -1.6890 H       
  35 H35           -3.4314    -6.2354     0.6980 H       
  36 H36           -2.6255    -7.7023     1.3040 H       
  37 H37           -2.6632    -6.2300     2.3037 H       
  38 H38            0.8571    -4.2843    -4.0641 H       
  39 H39            2.6225    -4.4694    -3.9315 H       
  40 H40            1.5557    -5.8586    -3.6148 H       
@<TRIPOS>BOND
   1    1    2 ar
   2    1    3 ar
   3    1   20 1
   4    2    6 ar
   5    2   21 1
   6    3    4 ar
   7    3   14 1
   8    4    5 ar
   9    4   22 1
  10    5    6 ar
  11    5   23 1
  12    6    7 1
  13    7    8 2
  14    7   11 am
  15    9   15 1
  16    9   10 1
  17    9   24 1
  18    9   25 1
  19   10   12 1
  20   10   11 1
  21   10   26 1
  22   11   27 1
  23   12   13 2
  24   12   17 1
  25   14   28 1
  26   14   29 1
  27   14   30 1
  28   15   16 1
  29   15   19 1
  30   15   31 1
  31   16   32 1
  32   16   33 1
  33   16   34 1
  34   17   18 1
  35   18   35 1
  36   18   36 1
  37   18   37 1
  38   19   38 1
  39   19   39 1
  40   19   40 1

#	End of record

