#	Name: ASD01890143
#	Creating user name:	WinNT
#	Creation time:	15. 06. 2019 19:50

#	Modifying user name:	WinNT
#	Modification time:	15. 06. 2019 19:50

#	Program:	/corina/corina34_cracker 3.40 0067  02.08.2006

@<TRIPOS>MOLECULE
ASD01890143
  41   42    0    0    0
SMALL
NO_CHARGES


@<TRIPOS>ATOM
   1 C1            -0.0279     1.4532    -0.0223 C.2     
   2 C2            -0.0036    -0.0080    -0.0416 C.2     
   3 C3             1.1748    -0.6626    -0.1146 C.2     
   4 C4             2.4500     0.1053    -0.3495 C.3     
   5 C5             3.0816     0.4689     0.9958 C.3     
   6 O6             1.0139     2.0779     0.0396 O.2     
   7 O7            -1.2055     2.1091    -0.0788 O.3     
   8 C8             1.2140    -2.1251     0.0350 C.ar    
   9 C9             0.5946    -2.9455    -0.9142 C.ar    
  10 C10            0.6355    -4.3149    -0.7683 C.ar    
  11 C11            1.2883    -4.8806     0.3167 C.ar    
  12 C12            1.9039    -4.0732     1.2615 C.ar    
  13 C13            1.8759    -2.7025     1.1242 C.ar    
  14 F14            1.3244    -6.2241     0.4542 F       
  15 C15            4.3568     1.2368     0.7609 C.ar    
  16 C16            4.3255     2.6155     0.6648 C.ar    
  17 C17            5.4947     3.3203     0.4494 C.ar    
  18 C18            6.6967     2.6457     0.3298 C.ar    
  19 C19            6.7274     1.2658     0.4260 C.ar    
  20 C20            5.5583     0.5626     0.6471 C.ar    
  21 Cl21           8.1656     3.5302     0.0587 Cl      
  22 C22           -1.1545     3.5370    -0.0559 C.3     
  23 C23           -2.5757     4.0993    -0.1273 C.3     
  24 H24           -0.9284    -0.5640     0.0027 H       
  25 H25            3.1441    -0.5097    -0.9224 H       
  26 H26            2.2284     1.0165    -0.9050 H       
  27 H27            2.3875     1.0838     1.5686 H       
  28 H28            3.3032    -0.4424     1.5512 H       
  29 H29            0.0853    -2.5062    -1.7592 H       
  30 H30            0.1578    -4.9492    -1.5003 H       
  31 H31            2.4104    -4.5200     2.1043 H       
  32 H32            2.3598    -2.0750     1.8580 H       
  33 H33            3.3871     3.1420     0.7579 H       
  34 H34            5.4700     4.3974     0.3741 H       
  35 H35            7.6654     0.7387     0.3328 H       
  36 H36            5.5828    -0.5142     0.7266 H       
  37 H37           -0.6785     3.8688     0.8668 H       
  38 H38           -0.5792     3.8938    -0.9102 H       
  39 H39           -3.0517     3.7675    -1.0500 H       
  40 H40           -3.1509     3.7425     0.7270 H       
  41 H41           -2.5368     5.1885    -0.1098 H       
@<TRIPOS>BOND
   1    1    2 1
   2    1    6 2
   3    1    7 1
   4    2    3 2
   5    2   24 1
   6    3    4 1
   7    3    8 1
   8    4    5 1
   9    4   25 1
  10    4   26 1
  11    5   15 1
  12    5   27 1
  13    5   28 1
  14    7   22 1
  15    8    9 ar
  16    8   13 ar
  17    9   10 ar
  18    9   29 1
  19   10   11 ar
  20   10   30 1
  21   11   12 ar
  22   11   14 1
  23   12   13 ar
  24   12   31 1
  25   13   32 1
  26   15   16 ar
  27   15   20 ar
  28   16   17 ar
  29   16   33 1
  30   17   18 ar
  31   17   34 1
  32   18   19 ar
  33   18   21 1
  34   19   20 ar
  35   19   35 1
  36   20   36 1
  37   22   23 1
  38   22   37 1
  39   22   38 1
  40   23   39 1
  41   23   40 1
  42   23   41 1

#	End of record

