#	Name: ASD02198221
#	Creating user name:	WinNT
#	Creation time:	15. 06. 2019 20:19

#	Modifying user name:	WinNT
#	Modification time:	15. 06. 2019 20:19

#	Program:	/corina/corina34_cracker 3.40 0067  02.08.2006

@<TRIPOS>MOLECULE
ASD02198221
  35   36    0    0    0
SMALL
NO_CHARGES


@<TRIPOS>ATOM
   1 C1            -0.0183     1.3440    -0.2881 C.2     
   2 C2             0.0097    -0.0343    -0.2512 C.2     
   3 C3            -1.1726    -0.8407    -0.3033 C.1     
   4 S4             1.5588     1.9867    -0.2080 S.3     
   5 C5             2.2776     0.3865    -0.1233 C.2     
   6 C6             1.2918    -0.5714    -0.1591 C.2     
   7 C7             3.6576     0.1237    -0.0322 C.2     
   8 C8             4.6309     1.2322    -0.1467 C.ar    
   9 O9             4.0508    -1.0175     0.1410 O.2     
  10 N10            1.5476    -1.9327    -0.1078 N.pl3   
  11 N11           -1.1640     2.0985    -0.3826 N.pl3   
  12 N12           -2.1104    -1.4804    -0.3447 N.1     
  13 C13           -1.0777     3.5606    -0.4141 C.3     
  14 C14           -2.3099     4.1292    -1.1207 C.3     
  15 C15            4.3291     2.3517    -0.9230 C.ar    
  16 C16           -1.0167     4.0988     1.0168 C.3     
  17 C17            5.8521     1.1644     0.5261 C.ar    
  18 C18            6.7559     2.2001     0.4161 C.ar    
  19 C19            6.4542     3.3070    -0.3598 C.ar    
  20 C20            5.2413     3.3828    -1.0260 C.ar    
  21 Cl21           7.5967     4.6072    -0.4929 Cl      
  22 Cl22           4.8712     4.7735    -1.9970 Cl      
  23 H23            2.4611    -2.2524    -0.0431 H       
  24 H24            0.8131    -2.5656    -0.1366 H       
  25 H25           -2.0294     1.6626    -0.4285 H       
  26 H26           -0.1791     3.8600    -0.9535 H       
  27 H27           -3.2085     3.8298    -0.5813 H       
  28 H28           -2.2457     5.2170    -1.1442 H       
  29 H29           -2.3533     3.7457    -2.1401 H       
  30 H30            3.3841     2.4113    -1.4424 H       
  31 H31           -0.9525     5.1867     0.9934 H       
  32 H32           -1.9153     3.7995     1.5562 H       
  33 H33           -0.1389     3.6938     1.5203 H       
  34 H34            6.0886     0.3023     1.1321 H       
  35 H35            7.7009     2.1482     0.9364 H       
@<TRIPOS>BOND
   1    1    2 2
   2    1    4 1
   3    1   11 1
   4    2    3 1
   5    2    6 1
   6    3   12 3
   7    4    5 1
   8    5    6 2
   9    5    7 1
  10    6   10 1
  11    7    8 1
  12    7    9 2
  13    8   15 ar
  14    8   17 ar
  15   10   23 1
  16   10   24 1
  17   11   13 1
  18   11   25 1
  19   13   14 1
  20   13   16 1
  21   13   26 1
  22   14   27 1
  23   14   28 1
  24   14   29 1
  25   15   20 ar
  26   15   30 1
  27   16   31 1
  28   16   32 1
  29   16   33 1
  30   17   18 ar
  31   17   34 1
  32   18   19 ar
  33   18   35 1
  34   19   20 ar
  35   19   21 1
  36   20   22 1

#	End of record

