#	Name: ASD01028314
#	Creating user name:	WinNT
#	Creation time:	15. 06. 2019 18:56

#	Modifying user name:	WinNT
#	Modification time:	15. 06. 2019 18:56

#	Program:	/corina/corina34_cracker 3.40 0067  02.08.2006

@<TRIPOS>MOLECULE
ASD01028314
  39   42    0    0    0
SMALL
NO_CHARGES


@<TRIPOS>ATOM
   1 C1            -0.0167     1.3831     0.0096 C.ar    
   2 C2             0.0021    -0.0041     0.0020 C.ar    
   3 C3             1.1765     2.0907     0.0021 C.ar    
   4 C4             2.3801     1.4129    -0.0131 C.ar    
   5 C5             2.3962     0.0303    -0.0211 C.ar    
   6 C6             1.2083    -0.6773    -0.0131 C.ar    
   7 C7             3.7106    -0.7066    -0.0386 C.3     
   8 C8             4.1631    -0.9604     1.3763 C.2     
   9 N9             3.8681    -2.0533     2.1320 N.pl3   
  10 C10            4.4887    -1.8536     3.3405 C.2     
  11 N11            5.1103    -0.6878     3.2637 N.2     
  12 N12            4.9160    -0.1731     2.1006 N.2     
  13 C13            3.1391    -3.1822     1.9048 C.2     
  14 C14            3.0164    -4.1300     2.8765 C.2     
  15 C15            3.6474    -3.9455     4.1312 C.2     
  16 C16            4.3743    -2.8219     4.3582 C.2     
  17 C17            2.2232    -5.3523     2.6208 C.2     
  18 O18           -1.2021     2.0477     0.0189 O.3     
  19 C19           -1.1453     3.4755     0.0264 C.3     
  20 C20            1.0718    -5.7080     3.2556 C.2     
  21 C21            0.6530    -6.9325     2.7086 C.2     
  22 C22            1.5503    -7.2881     1.7644 C.2     
  23 N23            2.5137    -6.3245     1.6989 N.pl3   
  24 H24           -0.9255    -0.5572     0.0083 H       
  25 H25            1.1645     3.1706     0.0076 H       
  26 H26            3.3093     1.9633    -0.0190 H       
  27 H27            1.2235    -1.7571    -0.0194 H       
  28 H28            3.5871    -1.6577    -0.5567 H       
  29 H29            4.4575    -0.1051    -0.5566 H       
  30 H30            2.6559    -3.3264     0.9498 H       
  31 H31            3.5513    -4.6951     4.9027 H       
  32 H32            4.8600    -2.6707     5.3110 H       
  33 H33           -0.6217     3.8230    -0.8642 H       
  34 H34           -2.1577     3.8794     0.0334 H       
  35 H35           -0.6132     3.8133     0.9157 H       
  36 H36            0.5731    -5.1518     4.0355 H       
  37 H37           -0.2279    -7.4891     2.9923 H       
  38 H38            1.5101    -8.1826     1.1605 H       
  39 H39            3.2792    -6.3291     1.1032 H       
@<TRIPOS>BOND
   1    1    2 ar
   2    1    3 ar
   3    1   18 1
   4    2    6 ar
   5    2   24 1
   6    3    4 ar
   7    3   25 1
   8    4    5 ar
   9    4   26 1
  10    5    6 ar
  11    5    7 1
  12    6   27 1
  13    7    8 1
  14    7   28 1
  15    7   29 1
  16    8    9 1
  17    8   12 2
  18    9   10 1
  19    9   13 1
  20   10   11 2
  21   10   16 1
  22   11   12 1
  23   13   14 2
  24   13   30 1
  25   14   15 1
  26   14   17 1
  27   15   16 2
  28   15   31 1
  29   16   32 1
  30   17   20 2
  31   17   23 1
  32   18   19 1
  33   19   33 1
  34   19   34 1
  35   19   35 1
  36   20   21 1
  37   20   36 1
  38   21   22 2
  39   21   37 1
  40   22   23 1
  41   22   38 1
  42   23   39 1

#	End of record

