#	Name: ASD01882698
#	Creating user name:	WinNT
#	Creation time:	15. 06. 2019 19:45

#	Modifying user name:	WinNT
#	Modification time:	15. 06. 2019 19:45

#	Program:	/corina/corina34_cracker 3.40 0067  02.08.2006

@<TRIPOS>MOLECULE
ASD01882698
  63   67    0    0    0
SMALL
NO_CHARGES


@<TRIPOS>ATOM
   1 N1            -0.2450     1.3049    -0.7954 N.ar    
   2 C2            -0.2434    -0.0185    -0.8268 C.ar    
   3 C3             0.9153    -0.7264    -1.1272 C.ar    
   4 C4             2.0823    -0.0315    -1.3973 C.ar    
   5 C5             0.8505     2.0051    -1.0478 C.ar    
   6 N6             1.1160     3.3680    -1.0817 N.am    
   7 C7             2.0475     1.3559    -1.3567 C.ar    
   8 N8             3.0044     2.3476    -1.5684 N.am    
   9 C9             2.4126     3.5450    -1.3962 C.2     
  10 C10            0.1467     4.4347    -0.8191 C.3     
  11 C11            4.4099     2.1255    -1.9171 C.3     
  12 C12            4.5565     2.0798    -3.4394 C.3     
  13 C13            4.0863     3.4074    -4.0371 C.3     
  14 C14            6.0243     1.8479    -3.8037 C.3     
  15 C15            3.7055     0.9384    -3.9997 C.3     
  16 N16           -1.4192    -0.7120    -0.5546 N.3     
  17 O17            2.9660     4.6230    -1.5080 O.2     
  18 C18           -3.8010    -0.5886    -0.0118 C.3     
  19 N19           -3.5958    -1.4937     1.1268 N.3     
  20 C20           -2.2322    -1.3731     1.6607 C.3     
  21 C21           -1.2249    -1.6662     0.5454 C.3     
  22 C22           -2.5218     0.2148    -0.2623 C.3     
  23 C23           -2.0133     0.0559     2.1695 C.3     
  24 C24           -2.1831     1.0247     0.9938 C.3     
  25 C25           -3.8947    -2.8831     0.7553 C.3     
  26 C26           -3.5820    -3.7919     1.9160 C.2     
  27 C27           -4.4866    -4.2479     2.9022 C.2     
  28 C28           -3.7263    -5.0262     3.7091 C.2     
  29 O29           -2.4859    -5.0008     3.2017 O.3     
  30 N30           -2.4267    -4.3170     2.2061 N.2     
  31 C31           -4.1844    -5.7727     4.9354 C.3     
  32 H32            0.9052    -1.8061    -1.1494 H       
  33 H33            2.9966    -0.5557    -1.6332 H       
  34 H34            0.1514     4.6763     0.2437 H       
  35 H35            0.4164     5.3204    -1.3943 H       
  36 H36           -0.8489     4.1009    -1.1115 H       
  37 H37            5.0161     2.9386    -1.5180 H       
  38 H38            4.7449     1.1797    -1.4913 H       
  39 H39            4.6926     4.2206    -3.6380 H       
  40 H40            4.1908     3.3749    -5.1216 H       
  41 H41            3.0406     3.5726    -3.7776 H       
  42 H42            6.3593     0.9021    -3.3778 H       
  43 H43            6.1288     1.8153    -4.8882 H       
  44 H44            6.6306     2.6610    -3.4045 H       
  45 H45            2.6598     1.1036    -3.7402 H       
  46 H46            3.8100     0.9059    -5.0842 H       
  47 H47            4.0405    -0.0074    -3.5739 H       
  48 H48           -4.0437    -1.1716    -0.9002 H       
  49 H49           -4.6212     0.0941     0.2101 H       
  50 H50           -2.0938    -2.0845     2.4748 H       
  51 H51           -1.3760    -2.6808     0.1770 H       
  52 H52           -0.2120    -1.5688     0.9361 H       
  53 H53           -2.6706     0.8848    -1.1091 H       
  54 H54           -2.7472     0.2857     2.9420 H       
  55 H55           -1.0070     0.1488     2.5779 H       
  56 H56           -1.2552     1.5743     0.8356 H       
  57 H57           -2.9926     1.7224     1.2086 H       
  58 H58           -4.9504    -2.9716     0.4987 H       
  59 H59           -3.2870    -3.1684    -0.1035 H       
  60 H60           -5.5398    -4.0265     2.9919 H       
  61 H61           -4.5161    -6.7711     4.6501 H       
  62 H62           -3.3583    -5.8524     5.6420 H       
  63 H63           -5.0101    -5.2347     5.4009 H       
@<TRIPOS>BOND
   1    1    2 ar
   2    1    5 ar
   3    2    3 ar
   4    2   16 1
   5    3    4 ar
   6    3   32 1
   7    4    7 ar
   8    4   33 1
   9    5    7 ar
  10    5    6 1
  11    6    9 am
  12    6   10 1
  13    7    8 1
  14    8    9 am
  15    8   11 1
  16    9   17 2
  17   10   34 1
  18   10   35 1
  19   10   36 1
  20   11   12 1
  21   11   37 1
  22   11   38 1
  23   12   13 1
  24   12   14 1
  25   12   15 1
  26   13   39 1
  27   13   40 1
  28   13   41 1
  29   14   42 1
  30   14   43 1
  31   14   44 1
  32   15   45 1
  33   15   46 1
  34   15   47 1
  35   16   22 1
  36   16   21 1
  37   18   19 1
  38   18   22 1
  39   18   48 1
  40   18   49 1
  41   19   20 1
  42   19   25 1
  43   20   21 1
  44   20   23 1
  45   20   50 1
  46   21   51 1
  47   21   52 1
  48   22   24 1
  49   22   53 1
  50   23   24 1
  51   23   54 1
  52   23   55 1
  53   24   56 1
  54   24   57 1
  55   25   26 1
  56   25   58 1
  57   25   59 1
  58   26   27 1
  59   26   30 2
  60   27   28 2
  61   27   60 1
  62   28   29 1
  63   28   31 1
  64   29   30 1
  65   31   61 1
  66   31   62 1
  67   31   63 1

#	End of record

