#	Name: ASD01881893
#	Creating user name:	WinNT
#	Creation time:	15. 06. 2019 19:43

#	Modifying user name:	WinNT
#	Modification time:	15. 06. 2019 19:43

#	Program:	/corina/corina34_cracker 3.40 0067  02.08.2006

@<TRIPOS>MOLECULE
ASD01881893
  37   40    0    0    0
SMALL
NO_CHARGES


@<TRIPOS>ATOM
   1 N1            -0.0154     1.2839     0.0091 N.pl3   
   2 N2             0.0021    -0.0041     0.0020 N.2     
   3 N3             1.2033    -0.4649    -0.0119 N.2     
   4 C4             2.0741     0.5645    -0.0147 C.ar    
   5 C5             1.2843     1.7298    -0.0009 C.ar    
   6 C6             3.4670     0.6759    -0.0271 C.ar    
   7 C7             4.0484     1.9285    -0.0255 C.ar    
   8 C8             3.2560     3.0739    -0.0118 C.ar    
   9 C9             1.8924     2.9784    -0.0004 C.ar    
  10 C10           -1.2133     2.1272     0.0196 C.3     
  11 C11           -1.6228     2.4135     1.4657 C.3     
  12 C12           -2.7884     3.3784     1.6921 C.3     
  13 C13           -2.9777     1.8797     1.9352 C.3     
  14 O14            5.4033     2.0444    -0.0370 O.3     
  15 C15            5.9411     3.3683    -0.0346 C.3     
  16 C16            9.5264     3.2089    -1.2186 C.ar    
  17 C17            8.1442     3.2728    -1.2454 C.ar    
  18 C18            7.4465     3.2990    -0.0485 C.ar    
  19 C19            8.1662     3.2604     1.1366 C.ar    
  20 C20            9.5453     3.1975     1.0857 C.ar    
  21 N21           10.1777     3.1736    -0.0717 N.ar    
  22 Cl22          10.4128     3.1682    -2.7107 Cl      
  23 Br23           4.5472    -0.8761    -0.0451 Br      
  24 H24            3.7236     4.0474    -0.0103 H       
  25 H25            1.2882     3.8735     0.0099 H       
  26 H26           -1.0007     3.0667    -0.4906 H       
  27 H27           -2.0254     1.6113    -0.4926 H       
  28 H28           -0.8089     2.4286     2.1906 H       
  29 H29           -2.7415     4.0280     2.5661 H       
  30 H30           -3.2635     3.8093     0.8108 H       
  31 H31           -3.5773     1.3246     1.2137 H       
  32 H32           -3.0553     1.5434     2.9691 H       
  33 H33            5.5939     3.9031    -0.9187 H       
  34 H34            5.6098     3.8935     0.8612 H       
  35 H35            7.6161     3.3018    -2.1870 H       
  36 H36            7.6548     3.2796     2.0876 H       
  37 H37           10.1124     3.1671     2.0043 H       
@<TRIPOS>BOND
   1    1    2 1
   2    1    5 1
   3    1   10 1
   4    2    3 2
   5    3    4 1
   6    4    5 ar
   7    4    6 ar
   8    5    9 ar
   9    6    7 ar
  10    6   23 1
  11    7    8 ar
  12    7   14 1
  13    8    9 ar
  14    8   24 1
  15    9   25 1
  16   10   11 1
  17   10   26 1
  18   10   27 1
  19   11   12 1
  20   11   13 1
  21   11   28 1
  22   12   13 1
  23   12   29 1
  24   12   30 1
  25   13   31 1
  26   13   32 1
  27   14   15 1
  28   15   18 1
  29   15   33 1
  30   15   34 1
  31   16   17 ar
  32   16   21 ar
  33   16   22 1
  34   17   18 ar
  35   17   35 1
  36   18   19 ar
  37   19   20 ar
  38   19   36 1
  39   20   21 ar
  40   20   37 1

#	End of record

