#	Name: ASD03490117
#	Creating user name:	WinNT
#	Creation time:	15. 06. 2019 20:42

#	Modifying user name:	WinNT
#	Modification time:	15. 06. 2019 20:42

#	Program:	/corina/corina34_cracker 3.40 0067  02.08.2006

@<TRIPOS>MOLECULE
ASD03490117
  57   60    0    0    0
SMALL
NO_CHARGES


@<TRIPOS>ATOM
   1 C1            -0.0082     1.3673     0.0987 C.ar    
   2 C2             0.1077     0.1421     0.6806 C.ar    
   3 C3             1.3071    -0.5633     0.6374 C.ar    
   4 C4             1.0944     1.9387    -0.5594 C.ar    
   5 C5             2.3199     1.2303    -0.6104 C.ar    
   6 C6             2.4111    -0.0379     0.0021 C.ar    
   7 N7             3.6093    -0.7535    -0.0350 N.am    
   8 C8             3.5946    -2.0978     0.0605 C.2     
   9 O9             2.5455    -2.6824     0.2504 O.2     
  10 N10            4.7429    -2.7942    -0.0544 N.am    
  11 C11            4.7277    -4.1851     0.0445 C.2     
  12 C12            3.6325    -4.9658     0.2541 C.2     
  13 C13            4.0549    -6.2978     0.2868 C.2     
  14 C14            3.1678    -7.4981     0.4957 C.3     
  15 C15            2.3757    -7.7755    -0.7835 C.3     
  16 C16            4.0293    -8.7158     0.8363 C.3     
  17 C17            2.1980    -7.2215     1.6462 C.3     
  18 N18            5.3506    -6.3268     0.1051 N.2     
  19 N19            5.8043    -5.0114    -0.0568 N.pl3   
  20 C20            7.1305    -4.6166    -0.2797 C.ar    
  21 C21            8.1733    -5.3154     0.3135 C.ar    
  22 C22            7.4043    -3.5294    -1.0986 C.ar    
  23 C23            8.7123    -3.1427    -1.3163 C.ar    
  24 C24            9.7485    -3.8374    -0.7199 C.ar    
  25 C25           11.1745    -3.4132    -0.9599 C.3     
  26 C26            9.4792    -4.9239     0.0920 C.ar    
  27 O27           11.5609    -2.4591     0.0313 O.3     
  28 C28            3.4199     1.8022    -1.2686 C.ar    
  29 C29            3.2958     3.0279    -1.8485 C.ar    
  30 C30            2.0908     3.7259    -1.7984 C.ar    
  31 C31            1.0035     3.2019    -1.1694 C.ar    
  32 H32           -0.9480     1.8979     0.1390 H       
  33 H33           -0.7445    -0.2895     1.1842 H       
  34 H34            1.3730    -1.5334     1.1076 H       
  35 H35            4.4524    -0.2832    -0.1296 H       
  36 H36            5.5798    -2.3278    -0.2059 H       
  37 H37            2.6172    -4.6176     0.3742 H       
  38 H38            3.0666    -7.9726    -1.6033 H       
  39 H39            1.7341    -8.6436    -0.6325 H       
  40 H40            1.7620    -6.9080    -1.0262 H       
  41 H41            4.5937    -8.5181     1.7476 H       
  42 H42            3.3877    -9.5839     0.9873 H       
  43 H43            4.7202    -8.9128     0.0166 H       
  44 H44            1.5843    -6.3540     1.4036 H       
  45 H45            1.5565    -8.0896     1.7973 H       
  46 H46            2.7624    -7.0238     2.5576 H       
  47 H47            7.9636    -6.1641     0.9477 H       
  48 H48            6.5954    -2.9868    -1.5652 H       
  49 H49            8.9259    -2.2970    -1.9532 H       
  50 H50           11.8276    -4.2839    -0.9002 H       
  51 H51           11.2582    -2.9634    -1.9493 H       
  52 H52           10.2908    -5.4671     0.5531 H       
  53 H53           12.4694    -2.1413    -0.0617 H       
  54 H54            4.3601     1.2728    -1.3145 H       
  55 H55            4.1438     3.4656    -2.3542 H       
  56 H56            2.0185     4.6967    -2.2660 H       
  57 H57            0.0759     3.7542    -1.1385 H       
@<TRIPOS>BOND
   1    1    2 ar
   2    1    4 ar
   3    1   32 1
   4    2    3 ar
   5    2   33 1
   6    3    6 ar
   7    3   34 1
   8    4    5 ar
   9    4   31 ar
  10    5    6 ar
  11    5   28 ar
  12    6    7 1
  13    7    8 am
  14    7   35 1
  15    8    9 2
  16    8   10 am
  17   10   11 1
  18   10   36 1
  19   11   12 2
  20   11   19 1
  21   12   13 1
  22   12   37 1
  23   13   14 1
  24   13   18 2
  25   14   15 1
  26   14   16 1
  27   14   17 1
  28   15   38 1
  29   15   39 1
  30   15   40 1
  31   16   41 1
  32   16   42 1
  33   16   43 1
  34   17   44 1
  35   17   45 1
  36   17   46 1
  37   18   19 1
  38   19   20 1
  39   20   21 ar
  40   20   22 ar
  41   21   26 ar
  42   21   47 1
  43   22   23 ar
  44   22   48 1
  45   23   24 ar
  46   23   49 1
  47   24   25 1
  48   24   26 ar
  49   25   27 1
  50   25   50 1
  51   25   51 1
  52   26   52 1
  53   27   53 1
  54   28   29 ar
  55   28   54 1
  56   29   30 ar
  57   29   55 1
  58   30   31 ar
  59   30   56 1
  60   31   57 1

#	End of record

