#	Name: ASD08070682
#	Creating user name:	WinNT
#	Creation time:	15. 06. 2019 21:15

#	Modifying user name:	WinNT
#	Modification time:	15. 06. 2019 21:15

#	Program:	/corina/corina34_cracker 3.40 0067  02.08.2006

@<TRIPOS>MOLECULE
ASD08070682
  51   51    0    0    0
SMALL
NO_CHARGES


@<TRIPOS>ATOM
   1 C1            -0.0179     1.4710     0.0101 C.2     
   2 C2             0.0021    -0.0041     0.0020 C.ar    
   3 C3             1.2212    -0.6879    -0.0133 C.ar    
   4 C4             1.2366    -2.0639    -0.0204 C.ar    
   5 C5             0.0397    -2.7749    -0.0127 C.ar    
   6 C6            -1.1761    -2.0968     0.0021 C.ar    
   7 C7            -1.1980    -0.7209     0.0155 C.ar    
   8 O8             1.0267     2.0932     0.0035 O.2     
   9 N9            -1.1941     2.1289     0.0193 N.am    
  10 C10            0.3746     4.2496    -3.4182 C.3     
  11 C11            0.2626     3.7301    -1.9835 C.3     
  12 C12           -1.1020     4.1132    -1.4074 C.3     
  13 C13           -1.2140     3.5938     0.0273 C.3     
  14 C14           -2.5253     4.0826     0.6459 C.3     
  15 C15           -2.5802     3.6690     2.1179 C.3     
  16 C16           -3.8915     4.1579     2.7364 C.3     
  17 N17            0.0585    -4.1653    -0.0203 N.pl3   
  18 C18           -1.2001    -4.9150    -0.0123 C.3     
  19 C19           -1.6520    -5.1682    -1.4520 C.3     
  20 C20            1.3370    -4.8804    -0.0364 C.3     
  21 C21            1.7959    -5.1371     1.4004 C.3     
  22 H22            2.1501    -0.1369    -0.0199 H       
  23 H23            2.1781    -2.5928    -0.0322 H       
  24 H24           -2.1030    -2.6511     0.0072 H       
  25 H25           -2.1414    -0.1954     0.0318 H       
  26 H26           -2.0275     1.6326     0.0205 H       
  27 H27           -0.4140     3.8076    -4.0273 H       
  28 H28            0.2707     5.3346    -3.4209 H       
  29 H29            1.3468     3.9766    -3.8286 H       
  30 H30            0.3665     2.6451    -1.9808 H       
  31 H31            1.0511     4.1721    -1.3744 H       
  32 H32           -1.2059     5.1983    -1.4101 H       
  33 H33           -1.8906     3.6712    -2.0164 H       
  34 H34           -0.3744     3.9653     0.6148 H       
  35 H35           -2.5794     5.1687     0.5714 H       
  36 H36           -3.3661     3.6395     0.1123 H       
  37 H37           -2.5261     2.5829     2.1923 H       
  38 H38           -1.7394     4.1121     2.6514 H       
  39 H39           -4.7323     3.7147     2.2028 H       
  40 H40           -3.9306     3.8632     3.7851 H       
  41 H41           -3.9456     5.2440     2.6619 H       
  42 H42           -1.0520    -5.8682     0.4950 H       
  43 H43           -1.9627    -4.3390     0.5119 H       
  44 H44           -1.8002    -4.2149    -1.9593 H       
  45 H45           -0.8894    -5.7441    -1.9762 H       
  46 H46           -2.5885    -5.7260    -1.4460 H       
  47 H47            1.2147    -5.8317    -0.5542 H       
  48 H48            2.0836    -4.2783    -0.5542 H       
  49 H49            1.9182    -4.1858     1.9182 H       
  50 H50            1.0492    -5.7392     1.9182 H       
  51 H51            2.7471    -5.6692     1.3885 H       
@<TRIPOS>BOND
   1    1    2 1
   2    1    8 2
   3    1    9 am
   4    2    3 ar
   5    2    7 ar
   6    3    4 ar
   7    3   22 1
   8    4    5 ar
   9    4   23 1
  10    5    6 ar
  11    5   17 1
  12    6    7 ar
  13    6   24 1
  14    7   25 1
  15    9   13 1
  16    9   26 1
  17   10   11 1
  18   10   27 1
  19   10   28 1
  20   10   29 1
  21   11   12 1
  22   11   30 1
  23   11   31 1
  24   12   13 1
  25   12   32 1
  26   12   33 1
  27   13   14 1
  28   13   34 1
  29   14   15 1
  30   14   35 1
  31   14   36 1
  32   15   16 1
  33   15   37 1
  34   15   38 1
  35   16   39 1
  36   16   40 1
  37   16   41 1
  38   17   18 1
  39   17   20 1
  40   18   19 1
  41   18   42 1
  42   18   43 1
  43   19   44 1
  44   19   45 1
  45   19   46 1
  46   20   21 1
  47   20   47 1
  48   20   48 1
  49   21   49 1
  50   21   50 1
  51   21   51 1

#	End of record

