#	Name: ASD01916184
#	Creating user name:	WinNT
#	Creation time:	15. 06. 2019 20:06

#	Modifying user name:	WinNT
#	Modification time:	15. 06. 2019 20:06

#	Program:	/corina/corina34_cracker 3.40 0067  02.08.2006

@<TRIPOS>MOLECULE
ASD01916184
  43   44    0    0    0
SMALL
NO_CHARGES


@<TRIPOS>ATOM
   1 C1            -0.0167     1.3816     0.0096 C.ar    
   2 C2             0.0021    -0.0041     0.0020 C.ar    
   3 C3            -1.1829    -0.7185     0.0090 C.ar    
   4 C4            -2.3921    -0.0559     0.0241 C.ar    
   5 C5            -2.4204     1.3418     0.0324 C.ar    
   6 C6            -1.2210     2.0584     0.0305 C.ar    
   7 F7             1.1446     2.0719     0.0023 F       
   8 C8            -3.6729     2.0357     0.0481 C.1     
   9 C9            -4.6998     2.6047     0.0610 C.1     
  10 C10           -5.9523     3.2986     0.0767 C.ar    
  11 C11           -5.9887     4.6996     0.0850 C.ar    
  12 N12           -7.1345     5.3394     0.0999 N.ar    
  13 C13           -8.2964     4.6949     0.1072 C.ar    
  14 C14           -8.3425     3.3001     0.0992 C.ar    
  15 C15           -7.1601     2.5864     0.0781 C.ar    
  16 C16           -9.5584     5.4664     0.1245 C.2     
  17 N17           -9.5246     6.8137     0.1327 N.am    
  18 O18          -10.6260     4.8852     0.1313 O.2     
  19 C19          -10.7745     7.5777     0.1499 C.3     
  20 C20          -10.5217     8.9553     0.7658 C.3     
  21 C21          -11.2892     7.7456    -1.2811 C.3     
  22 C22           -9.8904     8.7872     2.1493 C.3     
  23 O23           -9.6363     9.6977    -0.0748 O.3     
  24 C24          -11.8484     9.7058     0.8983 C.3     
  25 H25            0.9460    -0.5287    -0.0098 H       
  26 H26           -1.1607    -1.7983     0.0023 H       
  27 H27           -3.3157    -0.6157     0.0292 H       
  28 H28           -1.2354     3.1383     0.0369 H       
  29 H29           -5.0645     5.2584     0.0795 H       
  30 H30           -9.2916     2.7848     0.1053 H       
  31 H31           -7.1657     1.5064     0.0712 H       
  32 H32           -8.6727     7.2775     0.1273 H       
  33 H33          -11.5177     7.0452     0.7432 H       
  34 H34          -11.4693     6.7642    -1.7199 H       
  35 H35          -12.2192     8.3140    -1.2684 H       
  36 H36          -10.5460     8.2781    -1.8745 H       
  37 H37           -8.9453     8.2525     2.0549 H       
  38 H38           -9.7104     9.7686     2.5881 H       
  39 H39          -10.5658     8.2209     2.7906 H       
  40 H40           -9.9727     9.8427    -0.9698 H       
  41 H41          -12.5238     9.1395     1.5396 H       
  42 H42          -11.6683    10.6872     1.3372 H       
  43 H43          -12.2981     9.8255    -0.0873 H       
@<TRIPOS>BOND
   1    1    2 ar
   2    1    7 1
   3    1    6 ar
   4    2    3 ar
   5    2   25 1
   6    3    4 ar
   7    3   26 1
   8    4    5 ar
   9    4   27 1
  10    5    6 ar
  11    5    8 1
  12    6   28 1
  13    8    9 3
  14    9   10 1
  15   10   11 ar
  16   10   15 ar
  17   11   12 ar
  18   11   29 1
  19   12   13 ar
  20   13   14 ar
  21   13   16 1
  22   14   15 ar
  23   14   30 1
  24   15   31 1
  25   16   17 am
  26   16   18 2
  27   17   19 1
  28   17   32 1
  29   19   20 1
  30   19   21 1
  31   19   33 1
  32   20   22 1
  33   20   23 1
  34   20   24 1
  35   21   34 1
  36   21   35 1
  37   21   36 1
  38   22   37 1
  39   22   38 1
  40   22   39 1
  41   23   40 1
  42   24   41 1
  43   24   42 1
  44   24   43 1

#	End of record

