#	Name: ASD00071113
#	Creating user name:	WinNT
#	Creation time:	15. 06. 2019 18:30

#	Modifying user name:	WinNT
#	Modification time:	15. 06. 2019 18:30

#	Program:	/corina/corina34_cracker 3.40 0067  02.08.2006

@<TRIPOS>MOLECULE
ASD00071113
  38   39    0    0    0
SMALL
NO_CHARGES


@<TRIPOS>ATOM
   1 N1            -0.0169     1.3925     0.0097 N.pl3   
   2 C2             0.0021    -0.0041     0.0020 C.ar    
   3 C3             1.2136    -0.6839    -0.0132 C.ar    
   4 C4             1.2288    -2.0646    -0.0208 C.ar    
   5 C5             0.0396    -2.7708    -0.0133 C.ar    
   6 C6            -1.1679    -2.0974     0.0019 C.ar    
   7 C7            -1.1902    -0.7164     0.0153 C.ar    
   8 N8            -2.4379    -2.8573     0.0094 N.pl3   
   9 O9            -2.4190    -4.0751     0.0022 O.2     
  10 O10           -3.5020    -2.2648     0.0227 O.2     
  11 C11            2.5098     0.0848    -0.0219 C.3     
  12 N12            2.8216     0.5345     1.3414 N.3     
  13 C13            4.0816     1.2892     1.3716 C.3     
  14 C14            4.3676     1.7329     2.7830 C.ar    
  15 C15            4.9199     0.8423     3.6925 C.ar    
  16 C16            5.1819     1.2538     4.9910 C.ar    
  17 C17            4.8927     2.5490     5.3756 C.ar    
  18 C18            4.3421     3.4343     4.4677 C.ar    
  19 C19            4.0856     3.0282     3.1709 C.ar    
  20 O20            5.2030    -0.4312     3.3118 O.3     
  21 C21            5.7702    -1.2930     4.3007 C.3     
  22 H22            0.8165     1.8889     0.0044 H       
  23 H23           -0.8634     1.8660     0.0163 H       
  24 H24            2.1702    -2.5936    -0.0330 H       
  25 H25            0.0542    -3.8507    -0.0196 H       
  26 H26           -2.1337    -0.1911     0.0316 H       
  27 H27            3.3114    -0.5587    -0.3845 H       
  28 H28            2.4144     0.9506    -0.6772 H       
  29 H29            2.0641     1.0801     1.7243 H       
  30 H30            4.8941     0.6540     1.0187 H       
  31 H31            3.9971     2.1633     0.7259 H       
  32 H32            5.6114     0.5624     5.7008 H       
  33 H33            5.0966     2.8699     6.3865 H       
  34 H34            4.1161     4.4460     4.7705 H       
  35 H35            3.6599     3.7231     2.4622 H       
  36 H36            6.7145    -0.8745     4.6488 H       
  37 H37            5.0817    -1.3846     5.1407 H       
  38 H38            5.9469    -2.2771     3.8667 H       
@<TRIPOS>BOND
   1    1    2 1
   2    1   22 1
   3    1   23 1
   4    2    3 ar
   5    2    7 ar
   6    3    4 ar
   7    3   11 1
   8    4    5 ar
   9    4   24 1
  10    5    6 ar
  11    5   25 1
  12    6    7 ar
  13    6    8 1
  14    7   26 1
  15    8    9 2
  16    8   10 2
  17   11   12 1
  18   11   27 1
  19   11   28 1
  20   12   13 1
  21   12   29 1
  22   13   14 1
  23   13   30 1
  24   13   31 1
  25   14   15 ar
  26   14   19 ar
  27   15   16 ar
  28   15   20 1
  29   16   17 ar
  30   16   32 1
  31   17   18 ar
  32   17   33 1
  33   18   19 ar
  34   18   34 1
  35   19   35 1
  36   20   21 1
  37   21   36 1
  38   21   37 1
  39   21   38 1

#	End of record

