#	Name: ASD01813998
#	Creating user name:	WinNT
#	Creation time:	15. 06. 2019 19:31

#	Modifying user name:	WinNT
#	Modification time:	15. 06. 2019 19:31

#	Program:	/corina/corina34_cracker 3.40 0067  02.08.2006

@<TRIPOS>MOLECULE
ASD01813998
  46   49    0    0    0
SMALL
NO_CHARGES


@<TRIPOS>ATOM
   1 C1             0.5814     2.1062    -0.3899 C.ar    
   2 C2             0.6511     0.7318    -0.2236 C.ar    
   3 C3             1.8594     0.0725    -0.2994 C.ar    
   4 C4             3.0283     0.7864    -0.5458 C.ar    
   5 C5             2.9582     2.1802    -0.7151 C.ar    
   6 C6             1.7275     2.8363    -0.6354 C.ar    
   7 N7             4.2418     0.1373    -0.6231 N.pl3   
   8 C8             5.3941     0.7786    -0.8572 C.2     
   9 C9             5.4511     2.1453    -1.0398 C.2     
  10 C10            4.2032     2.9240    -0.9755 C.2     
  11 F11            1.6589     4.1758    -0.7978 F       
  12 O12            4.2003     4.1328    -1.1303 O.2     
  13 C13            6.7358     2.8123    -1.2936 C.2     
  14 O14            6.7784     4.1481    -1.4704 O.3     
  15 O15            7.7600     2.1595    -1.3443 O.2     
  16 C16            4.2726    -1.3160    -0.4410 C.3     
  17 C17            4.0984    -1.9933    -1.7759 C.ar    
  18 C18            5.2065    -2.2981    -2.5449 C.ar    
  19 C19            5.0500    -2.9184    -3.7689 C.ar    
  20 C20            3.7785    -3.2364    -4.2269 C.ar    
  21 C21            2.6678    -2.9296    -3.4524 C.ar    
  22 C22            2.8310    -2.3139    -2.2268 C.ar    
  23 N23            3.6164    -3.8655    -5.4688 N.pl3   
  24 N24            2.6418    -3.5600    -6.4275 N.2     
  25 C25            2.8069    -4.3574    -7.4523 C.2     
  26 C26            3.8944    -5.2025    -7.1852 C.2     
  27 C27            4.3823    -4.8791    -5.9609 C.2     
  28 N28            4.3945    -6.2042    -8.0384 N.pl3   
  29 C29            5.5521    -5.5290    -5.2679 C.3     
  30 H30           -0.3735     2.6074    -0.3317 H       
  31 H31           -0.2518     0.1709    -0.0320 H       
  32 H32            1.8989    -0.9986    -0.1671 H       
  33 H33            6.3093     0.2071    -0.9043 H       
  34 H34            7.6463     4.5417    -1.6346 H       
  35 H35            5.2292    -1.6077    -0.0077 H       
  36 H36            3.4648    -1.6157     0.2266 H       
  37 H37            6.1953    -2.0505    -2.1881 H       
  38 H38            5.9159    -3.1556    -4.3694 H       
  39 H39            1.6774    -3.1757    -3.8060 H       
  40 H40            1.9675    -2.0749    -1.6238 H       
  41 H41            2.2075    -4.3639    -8.3506 H       
  42 H42            3.9788    -6.3584    -8.9011 H       
  43 H43            5.1547    -6.7403    -7.7635 H       
  44 H44            6.4557    -4.9506    -5.4607 H       
  45 H45            5.3651    -5.5638    -4.1947 H       
  46 H46            5.6818    -6.5426    -5.6472 H       
@<TRIPOS>BOND
   1    1    2 ar
   2    1    6 ar
   3    1   30 1
   4    2    3 ar
   5    2   31 1
   6    3    4 ar
   7    3   32 1
   8    4    5 ar
   9    4    7 1
  10    5    6 ar
  11    5   10 1
  12    6   11 1
  13    7    8 1
  14    7   16 1
  15    8    9 2
  16    8   33 1
  17    9   10 1
  18    9   13 1
  19   10   12 2
  20   13   14 1
  21   13   15 2
  22   14   34 1
  23   16   17 1
  24   16   35 1
  25   16   36 1
  26   17   18 ar
  27   17   22 ar
  28   18   19 ar
  29   18   37 1
  30   19   20 ar
  31   19   38 1
  32   20   21 ar
  33   20   23 1
  34   21   22 ar
  35   21   39 1
  36   22   40 1
  37   23   24 1
  38   23   27 1
  39   24   25 2
  40   25   26 1
  41   25   41 1
  42   26   27 2
  43   26   28 1
  44   27   29 1
  45   28   42 1
  46   28   43 1
  47   29   44 1
  48   29   45 1
  49   29   46 1

#	End of record

