#	Name: ASD01884814
#	Creating user name:	WinNT
#	Creation time:	15. 06. 2019 19:48

#	Modifying user name:	WinNT
#	Modification time:	15. 06. 2019 19:48

#	Program:	/corina/corina34_cracker 3.40 0067  02.08.2006

@<TRIPOS>MOLECULE
ASD01884814
  57   60    0    0    0
SMALL
NO_CHARGES


@<TRIPOS>ATOM
   1 C1             0.6053    -2.4052    -7.3452 C.3     
   2 C2             0.1632    -1.9024    -5.9695 C.3     
   3 C3            -1.2938    -2.3002    -5.7249 C.3     
   4 C4             1.0510    -2.5251    -4.8888 C.3     
   5 C5             0.6414    -1.9709    -3.5208 C.3     
   6 C6             1.5741    -2.5273    -2.4431 C.3     
   7 N7             1.4507    -3.9904    -2.3965 N.3     
   8 C8             0.0455    -4.3961    -2.2334 C.3     
   9 C9            -0.0689    -5.8858    -2.5595 C.3     
  10 C10            0.9738    -6.6599    -1.7971 C.ar    
  11 C11            2.0654    -6.0432    -1.2224 C.ar    
  12 C12            2.2710    -4.5528    -1.3195 C.3     
  13 N13            2.9646    -6.7549    -0.5634 N.ar    
  14 C14            2.8662    -8.0685    -0.4201 C.ar    
  15 C15            1.7927    -8.7626    -0.9683 C.ar    
  16 C16            0.8231    -8.0466    -1.6732 C.ar    
  17 C17           -0.3405    -8.7396    -2.2777 C.ar    
  18 C18           -1.2838    -9.3627    -1.4633 C.ar    
  19 C19           -2.3648   -10.0063    -2.0304 C.ar    
  20 C20           -2.5143   -10.0343    -3.4066 C.ar    
  21 Cl21          -3.8771   -10.8460    -4.1119 Cl      
  22 C22           -1.5817    -9.4171    -4.2220 C.ar    
  23 C23           -0.4978    -8.7650    -3.6647 C.ar    
  24 F24            0.4098    -8.1581    -4.4605 F       
  25 C25            3.9098    -8.8051     0.3309 C.2     
  26 N26            4.9529    -8.1389     0.8644 N.am    
  27 O27            3.8252   -10.0097     0.4658 O.2     
  28 C28            0.7453    -0.4429    -3.5493 C.3     
  29 C29           -0.1306     0.0993    -4.6817 C.3     
  30 O30            0.2832    -0.4793    -5.9211 O.3     
  31 H31            1.6434    -2.1221    -7.5191 H       
  32 H32            0.5137    -3.4907    -7.3820 H       
  33 H33           -0.0262    -1.9610    -8.1146 H       
  34 H34           -1.3851    -3.3857    -5.7615 H       
  35 H35           -1.6086    -1.9419    -4.7448 H       
  36 H36           -1.9257    -1.8563    -6.4942 H       
  37 H37            0.9271    -3.6080    -4.8950 H       
  38 H38            2.0936    -2.2756    -5.0856 H       
  39 H39           -0.3852    -2.2638    -3.3012 H       
  40 H40            2.6035    -2.2569    -2.6785 H       
  41 H41            1.3009    -2.1085    -1.4746 H       
  42 H42           -0.2694    -4.2210    -1.2047 H       
  43 H43           -0.5828    -3.8226    -2.9148 H       
  44 H44           -1.0604    -6.2423    -2.2803 H       
  45 H45            0.0798    -6.0347    -3.6290 H       
  46 H46            3.3220    -4.3473    -1.5230 H       
  47 H47            1.9909    -4.0884    -0.3739 H       
  48 H48            1.7108    -9.8330    -0.8510 H       
  49 H49           -1.1689    -9.3425    -0.3896 H       
  50 H50           -3.0957   -10.4896    -1.3992 H       
  51 H51           -1.7032    -9.4415    -5.2949 H       
  52 H52            5.0204    -7.1772     0.7567 H       
  53 H53            5.6360    -8.6210     1.3561 H       
  54 H54            0.4029    -0.0367    -2.5975 H       
  55 H55            1.7818    -0.1514    -3.7190 H       
  56 H56           -1.1724    -0.1579    -4.4904 H       
  57 H57           -0.0273     1.1832    -4.7340 H       
@<TRIPOS>BOND
   1    1    2 1
   2    1   31 1
   3    1   32 1
   4    1   33 1
   5    2   30 1
   6    2    3 1
   7    2    4 1
   8    3   34 1
   9    3   35 1
  10    3   36 1
  11    4    5 1
  12    4   37 1
  13    4   38 1
  14    5    6 1
  15    5   28 1
  16    5   39 1
  17    6    7 1
  18    6   40 1
  19    6   41 1
  20    7   12 1
  21    7    8 1
  22    8    9 1
  23    8   42 1
  24    8   43 1
  25    9   10 1
  26    9   44 1
  27    9   45 1
  28   10   16 ar
  29   10   11 ar
  30   11   12 1
  31   11   13 ar
  32   12   46 1
  33   12   47 1
  34   13   14 ar
  35   14   15 ar
  36   14   25 1
  37   15   16 ar
  38   15   48 1
  39   16   17 1
  40   17   23 ar
  41   17   18 ar
  42   18   19 ar
  43   18   49 1
  44   19   20 ar
  45   19   50 1
  46   20   21 1
  47   20   22 ar
  48   22   23 ar
  49   22   51 1
  50   23   24 1
  51   25   26 am
  52   25   27 2
  53   26   52 1
  54   26   53 1
  55   28   29 1
  56   28   54 1
  57   28   55 1
  58   29   30 1
  59   29   56 1
  60   29   57 1

#	End of record

