#	Name: ASD07300308
#	Creating user name:	WinNT
#	Creation time:	15. 06. 2019 21:09

#	Modifying user name:	WinNT
#	Modification time:	15. 06. 2019 21:09

#	Program:	/corina/corina34_cracker 3.40 0067  02.08.2006

@<TRIPOS>MOLECULE
ASD07300308
  52   56    0    0    0
SMALL
NO_CHARGES


@<TRIPOS>ATOM
   1 N1             0.2614     1.2368    -0.0479 N.2     
   2 C2             0.5713    -0.0300     0.3549 C.ar    
   3 C3             0.5913    -0.3480     1.7165 C.ar    
   4 C4             0.9048    -1.6283     2.1180 C.ar    
   5 C5             1.2007    -2.6023     1.1728 C.ar    
   6 C6             1.1822    -2.2914    -0.1811 C.ar    
   7 C7             0.8643    -1.0155    -0.5930 C.ar    
   8 O8             1.5097    -3.8633     1.5737 O.3     
   9 C9             0.4944    -4.6833     1.9294 C.2     
  10 N10           -0.7699    -4.3495     1.9451 N.2     
  11 C11           -1.5169    -5.4096     2.3508 C.ar    
  12 C12           -0.6283    -6.4690     2.6000 C.ar    
  13 N13            0.6372    -5.9828     2.3194 N.pl3   
  14 C14           -2.8870    -5.6020     2.5425 C.ar    
  15 C15           -3.3523    -6.8246     2.9726 C.ar    
  16 C16           -2.4708    -7.8668     3.2175 C.ar    
  17 C17           -1.1146    -7.6933     3.0322 C.ar    
  18 C18            1.8960    -6.7247     2.4253 C.3     
  19 C19            1.0916     1.9029    -0.8151 C.2     
  20 C20            0.7031     3.2247    -1.3526 C.ar    
  21 C21           -0.6011     3.6936    -1.1855 C.ar    
  22 C22           -0.9570     4.9275    -1.6894 C.ar    
  23 C23           -0.0245     5.6998    -2.3592 C.ar    
  24 C24            1.2699     5.2409    -2.5283 C.ar    
  25 C25            1.6405     4.0114    -2.0243 C.ar    
  26 C26            2.4159     1.3319    -1.1423 C.ar    
  27 C27            2.8936     1.3753    -2.4533 C.ar    
  28 C28            4.1297     0.8407    -2.7517 C.ar    
  29 C29            4.8958     0.2625    -1.7550 C.ar    
  30 C30            4.4283     0.2162    -0.4535 C.ar    
  31 C31            3.1964     0.7522    -0.1404 C.ar    
  32 H32            0.3618     0.4086     2.4522 H       
  33 H33            0.9209    -1.8748     3.1694 H       
  34 H34            1.4133    -3.0520    -0.9121 H       
  35 H35            0.8458    -0.7759    -1.6459 H       
  36 H36           -3.5791    -4.7945     2.3544 H       
  37 H37           -4.4118    -6.9728     3.1207 H       
  38 H38           -2.8485    -8.8207     3.5548 H       
  39 H39           -0.4334    -8.5091     3.2241 H       
  40 H40            2.3048    -6.6052     3.4286 H       
  41 H41            1.7124    -7.7814     2.2312 H       
  42 H42            2.6074    -6.3394     1.6948 H       
  43 H43           -1.3300     3.0916    -0.6632 H       
  44 H44           -1.9657     5.2913    -1.5611 H       
  45 H45           -0.3083     6.6649    -2.7521 H       
  46 H46            1.9929     5.8487    -3.0520 H       
  47 H47            2.6524     3.6565    -2.1527 H       
  48 H48            2.2965     1.8260    -3.2323 H       
  49 H49            4.5003     0.8733    -3.7656 H       
  50 H50            5.8628    -0.1549    -1.9940 H       
  51 H51            5.0311    -0.2365     0.3198 H       
  52 H52            2.8347     0.7198     0.8767 H       
@<TRIPOS>BOND
   1    1    2 1
   2    1   19 2
   3    2    3 ar
   4    2    7 ar
   5    3    4 ar
   6    3   32 1
   7    4    5 ar
   8    4   33 1
   9    5    6 ar
  10    5    8 1
  11    6    7 ar
  12    6   34 1
  13    7   35 1
  14    8    9 1
  15    9   10 2
  16    9   13 1
  17   10   11 1
  18   11   12 ar
  19   11   14 ar
  20   12   13 1
  21   12   17 ar
  22   13   18 1
  23   14   15 ar
  24   14   36 1
  25   15   16 ar
  26   15   37 1
  27   16   17 ar
  28   16   38 1
  29   17   39 1
  30   18   40 1
  31   18   41 1
  32   18   42 1
  33   19   20 1
  34   19   26 1
  35   20   21 ar
  36   20   25 ar
  37   21   22 ar
  38   21   43 1
  39   22   23 ar
  40   22   44 1
  41   23   24 ar
  42   23   45 1
  43   24   25 ar
  44   24   46 1
  45   25   47 1
  46   26   27 ar
  47   26   31 ar
  48   27   28 ar
  49   27   48 1
  50   28   29 ar
  51   28   49 1
  52   29   30 ar
  53   29   50 1
  54   30   31 ar
  55   30   51 1
  56   31   52 1

#	End of record

