#	Name: ASD00122091
#	Creating user name:	WinNT
#	Creation time:	15. 06. 2019 18:31

#	Modifying user name:	WinNT
#	Modification time:	15. 06. 2019 18:31

#	Program:	/corina/corina34_cracker 3.40 0067  02.08.2006

@<TRIPOS>MOLECULE
ASD00122091
  41   43    0    0    0
SMALL
NO_CHARGES


@<TRIPOS>ATOM
   1 C1            -0.0189     1.4119     0.0211 C.ar    
   2 C2            -0.0054     0.0026     0.1260 C.ar    
   3 N3            -1.1611    -0.6515     0.1171 N.ar    
   4 C4            -2.3136    -0.0032     0.0121 C.ar    
   5 N5            -2.3762     1.3175    -0.0887 N.ar    
   6 C6            -1.2729     2.0578    -0.0828 C.ar    
   7 S7            -1.3694     3.8120    -0.2173 S.3     
   8 C8            -3.1638     4.0203    -0.3310 C.3     
   9 C9            -3.4924     5.4856    -0.4570 C.ar    
  10 C10           -3.5779     6.0698    -1.7069 C.ar    
  11 C11           -3.8793     7.4139    -1.8225 C.ar    
  12 C12           -4.0958     8.1737    -0.6882 C.ar    
  13 C13           -4.0112     7.5893     0.5617 C.ar    
  14 C14           -3.7141     6.2442     0.6771 C.ar    
  15 C15            1.1869     2.1555     0.0258 C.2     
  16 C16           -3.5745    -0.7817     0.0067 C.ar    
  17 C17           -3.5393    -2.1719     0.1108 C.ar    
  18 C18           -4.7167    -2.8914     0.1052 C.ar    
  19 C19           -5.9303    -2.2363    -0.0039 C.ar    
  20 C20           -5.9716    -0.8574    -0.1074 C.ar    
  21 C21           -4.8011    -0.1266    -0.0967 C.ar    
  22 N22            1.1860    -0.6808     0.2351 N.pl3   
  23 O23            1.7476     2.4094    -1.0207 O.2     
  24 C24            1.7736     2.6314     1.3297 C.3     
  25 H25           -3.5366     3.4877    -1.2059 H       
  26 H26           -3.6338     3.6183     0.5666 H       
  27 H27           -3.4087     5.4761    -2.5932 H       
  28 H28           -3.9453     7.8705    -2.7990 H       
  29 H29           -4.3306     9.2240    -0.7784 H       
  30 H30           -4.1800     8.1830     1.4480 H       
  31 H31           -3.6481     5.7876     1.6536 H       
  32 H32           -2.5924    -2.6844     0.1953 H       
  33 H33           -4.6907    -3.9680     0.1858 H       
  34 H34           -6.8493    -2.8038    -0.0085 H       
  35 H35           -6.9220    -0.3515    -0.1923 H       
  36 H36           -4.8346     0.9499    -0.1772 H       
  37 H37            2.0273    -0.2039     0.1596 H       
  38 H38            1.1834    -1.6387     0.3874 H       
  39 H39            2.3850     1.8401     1.7634 H       
  40 H40            2.3917     3.5112     1.1504 H       
  41 H41            0.9685     2.8872     2.0185 H       
@<TRIPOS>BOND
   1    1    2 ar
   2    1   15 1
   3    1    6 ar
   4    2    3 ar
   5    2   22 1
   6    3    4 ar
   7    4    5 ar
   8    4   16 1
   9    5    6 ar
  10    6    7 1
  11    7    8 1
  12    8    9 1
  13    8   25 1
  14    8   26 1
  15    9   10 ar
  16    9   14 ar
  17   10   11 ar
  18   10   27 1
  19   11   12 ar
  20   11   28 1
  21   12   13 ar
  22   12   29 1
  23   13   14 ar
  24   13   30 1
  25   14   31 1
  26   15   23 2
  27   15   24 1
  28   16   17 ar
  29   16   21 ar
  30   17   18 ar
  31   17   32 1
  32   18   19 ar
  33   18   33 1
  34   19   20 ar
  35   19   34 1
  36   20   21 ar
  37   20   35 1
  38   21   36 1
  39   22   37 1
  40   22   38 1
  41   24   39 1
  42   24   40 1
  43   24   41 1

#	End of record

