#	Name: ASD07931783
#	Creating user name:	WinNT
#	Creation time:	15. 06. 2019 21:13

#	Modifying user name:	WinNT
#	Modification time:	15. 06. 2019 21:13

#	Program:	/corina/corina34_cracker 3.40 0067  02.08.2006

@<TRIPOS>MOLECULE
ASD07931783
  33   33    0    0    0
SMALL
NO_CHARGES


@<TRIPOS>ATOM
   1 C1             0.0276     1.6238     0.2136 C.3     
   2 C2            -0.1951     0.1206    -0.0281 C.3     
   3 C3             1.1661    -0.4626    -0.4606 C.3     
   4 C4             2.2055     0.5290     0.1187 C.3     
   5 C5             1.5163     1.9017    -0.0804 C.3     
   6 N6            -0.8197     2.4102    -0.6929 N.3     
   7 O7            -0.6367    -0.5087     1.1764 O.3     
   8 C8            -1.3455    -1.6610     1.0465 C.ar    
   9 C9            -1.9092    -2.2599     2.1640 C.ar    
  10 C10           -2.6290    -3.4310     2.0293 C.ar    
  11 C11           -2.7878    -4.0068     0.7821 C.ar    
  12 C12           -2.2267    -3.4123    -0.3328 C.ar    
  13 C13           -1.5113    -2.2373    -0.2043 C.ar    
  14 C14           -1.7358    -1.6334     3.5236 C.3     
  15 F15           -2.3888    -2.4141     4.4835 F       
  16 F16           -0.3733    -1.5582     3.8320 F       
  17 F17           -2.2843    -0.3465     3.5174 F       
  18 H18           -0.2012     1.8733     1.2497 H       
  19 H19           -0.9318    -0.0255    -0.8180 H       
  20 H20            1.3081    -1.4560    -0.0350 H       
  21 H21            1.2377    -0.4984    -1.5477 H       
  22 H22            2.3780     0.3333     1.1770 H       
  23 H23            3.1393     0.4807    -0.4414 H       
  24 H24            1.6444     2.2477    -1.1061 H       
  25 H25            1.9138     2.6337     0.6226 H       
  26 H26           -0.6851     3.3994    -0.5466 H       
  27 H27           -0.6486     2.1604    -1.6554 H       
  28 H28           -3.0680    -3.8975     2.8988 H       
  29 H29           -3.3507    -4.9228     0.6788 H       
  30 H30           -2.3518    -3.8642    -1.3057 H       
  31 H31           -1.0773    -1.7707    -1.0762 H       
  32 Cl32           8.1393     8.3994     9.4835 Cl      
  33 H33            8.1393     9.7694     9.4835 H       
@<TRIPOS>BOND
   1    1    2 1
   2    1    5 1
   3    1    6 1
   4    1   18 1
   5    2    3 1
   6    2    7 1
   7    2   19 1
   8    3    4 1
   9    3   20 1
  10    3   21 1
  11    4    5 1
  12    4   22 1
  13    4   23 1
  14    5   24 1
  15    5   25 1
  16    6   26 1
  17    6   27 1
  18    7    8 1
  19    8    9 ar
  20    8   13 ar
  21    9   10 ar
  22    9   14 1
  23   10   11 ar
  24   10   28 1
  25   11   12 ar
  26   11   29 1
  27   12   13 ar
  28   12   30 1
  29   13   31 1
  30   14   15 1
  31   14   16 1
  32   14   17 1
  33   32   33 1

#	End of record

