#	Name: ASD00230018
#	Creating user name:	WinNT
#	Creation time:	15. 06. 2019 18:33

#	Modifying user name:	WinNT
#	Modification time:	15. 06. 2019 18:33

#	Program:	/corina/corina34_cracker 3.40 0067  02.08.2006

@<TRIPOS>MOLECULE
ASD00230018
  50   53    0    0    0
SMALL
NO_CHARGES


@<TRIPOS>ATOM
   1 C1            -1.3306     1.3909     0.4789 C.ar    
   2 C2            -1.7706     0.9029     1.7223 C.ar    
   3 C3            -1.1460    -0.1693     2.2903 C.ar    
   4 C4            -0.0751    -0.7797     1.6420 C.ar    
   5 C5             0.3665    -0.3016     0.4106 C.ar    
   6 C6            -0.2489     0.7691    -0.1700 C.ar    
   7 N7            -1.9452     2.4442    -0.0898 N.2     
   8 C8            -2.0156     3.5951     0.5551 C.2     
   9 C9            -2.8672     5.8971     0.6630 C.2     
  10 C10           -2.1942     6.0550     1.8869 C.2     
  11 C11           -1.4084     4.9455     2.4473 C.2     
  12 C12           -1.3338     3.7628     1.7881 C.2     
  13 C13           -2.7977     4.7106    -0.0071 C.2     
  14 O14           -2.2580     7.1181     2.4839 O.2     
  15 N15           -3.4577     4.5555    -1.2085 N.pl3   
  16 O16            0.5411    -1.8446     2.2128 O.3     
  17 N17           -0.7439     5.1080     3.6593 N.pl3   
  18 C18           -1.4643     5.4279     4.8142 C.ar    
  19 C19           -1.5038     6.0662     7.1260 C.ar    
  20 C20           -2.8909     6.0616     7.1013 C.ar    
  21 C21           -3.5637     5.7342     5.9330 C.ar    
  22 C22           -2.8533     5.4181     4.7920 C.ar    
  23 C23           -0.7915     5.7503     5.9862 C.ar    
  24 C24           -2.7416     4.2207    -2.3612 C.ar    
  25 C25           -3.3964     3.6485    -3.4449 C.ar    
  26 C26           -1.3228     3.5572    -4.6448 C.ar    
  27 C27           -0.6689     4.1338    -3.5654 C.ar    
  28 C28           -1.3753     4.4650    -2.4264 C.ar    
  29 C29           -2.6881     3.3181    -4.5829 C.ar    
  30 O30           -3.5915     6.3724     8.2245 O.3     
  31 O31           -0.6261     3.2314    -5.7660 O.3     
  32 H32           -2.6004     1.3756     2.2265 H       
  33 H33           -1.4828    -0.5452     3.2451 H       
  34 H34            1.1980    -0.7795    -0.0860 H       
  35 H35            0.0944     1.1385    -1.1250 H       
  36 H36           -3.4436     6.7142     0.2550 H       
  37 H37           -0.7563     2.9491     2.2013 H       
  38 H38           -4.4188     4.6789    -1.2534 H       
  39 H39            0.1598    -2.6984     1.9662 H       
  40 H40            0.2190     4.9993     3.7029 H       
  41 H41           -0.9810     6.3215     8.0359 H       
  42 H42           -4.6436     5.7307     5.9149 H       
  43 H43           -3.3773     5.1636     3.8826 H       
  44 H44            0.2883     5.7536     6.0057 H       
  45 H45           -4.4591     3.4620    -3.3969 H       
  46 H46            0.3939     4.3192    -3.6144 H       
  47 H47           -0.8662     4.9141    -1.5865 H       
  48 H48           -3.1969     2.8730    -5.4252 H       
  49 H49           -3.7928     7.3139     8.3147 H       
  50 H50           -0.2652     2.3344    -5.7581 H       
@<TRIPOS>BOND
   1    1    2 ar
   2    1    6 ar
   3    1    7 1
   4    2    3 ar
   5    2   32 1
   6    3    4 ar
   7    3   33 1
   8    4    5 ar
   9    4   16 1
  10    5    6 ar
  11    5   34 1
  12    6   35 1
  13    7    8 2
  14    8   13 1
  15    8   12 1
  16    9   10 1
  17    9   13 2
  18    9   36 1
  19   10   11 1
  20   10   14 2
  21   11   12 2
  22   11   17 1
  23   12   37 1
  24   13   15 1
  25   15   24 1
  26   15   38 1
  27   16   39 1
  28   17   18 1
  29   17   40 1
  30   18   23 ar
  31   18   22 ar
  32   19   20 ar
  33   19   23 ar
  34   19   41 1
  35   20   21 ar
  36   20   30 1
  37   21   22 ar
  38   21   42 1
  39   22   43 1
  40   23   44 1
  41   24   25 ar
  42   24   28 ar
  43   25   29 ar
  44   25   45 1
  45   26   27 ar
  46   26   29 ar
  47   26   31 1
  48   27   28 ar
  49   27   46 1
  50   28   47 1
  51   29   48 1
  52   30   49 1
  53   31   50 1

#	End of record

