#	Name: ASD04590145
#	Creating user name:	WinNT
#	Creation time:	15. 06. 2019 20:50

#	Modifying user name:	WinNT
#	Modification time:	15. 06. 2019 20:50

#	Program:	/corina/corina34_cracker 3.40 0067  02.08.2006

@<TRIPOS>MOLECULE
ASD04590145
  48   50    0    0    0
SMALL
NO_CHARGES


@<TRIPOS>ATOM
   1 N1            -0.0153     1.2802     0.0091 N.pl3   
   2 N2             0.0021    -0.0041     0.0020 N.2     
   3 C3             1.2455    -0.4440    -0.0122 C.2     
   4 C4             2.0903     0.6961    -0.0142 C.2     
   5 C5             1.2523     1.7667    -0.0004 C.2     
   6 C6             1.6765    -1.8547    -0.0235 C.2     
   7 N7             0.7571    -2.8402    -0.0200 N.am    
   8 O8             2.8611    -2.1284    -0.0359 O.2     
   9 N9             3.4930     0.7146    -0.0270 N.am    
  10 C10            4.1514     1.8906    -0.0271 C.2     
  11 C11            6.3506     1.9133     1.1605 C.ar    
  12 C12            5.6257     1.9101    -0.0406 C.ar    
  13 C13            1.1851    -4.2412    -0.0312 C.3     
  14 C14            0.0894    -5.1159     0.5844 C.3     
  15 C15            0.5160    -6.5839     0.5145 C.3     
  16 N16            0.7411    -6.9635    -0.8861 N.3     
  17 C17            1.8216    -6.1692    -1.4844 C.3     
  18 C18            1.4339    -4.6887    -1.4743 C.3     
  19 N19            7.6726     1.9303     1.1445 N.ar    
  20 C20            8.3540     1.9448     0.0141 C.ar    
  21 C21            7.7087     1.9428    -1.2121 C.ar    
  22 C22            6.3270     1.9253    -1.2529 C.ar    
  23 O23            3.5295     2.9357    -0.0159 O.2     
  24 O24            5.6920     1.9045     2.3439 O.3     
  25 Cl25          10.0892     1.9674     0.0645 Cl      
  26 C26            5.5935     1.9230    -2.5693 C.3     
  27 C27            6.4891     1.9084     3.5299 C.3     
  28 H28           -0.8184     1.8242     0.0160 H       
  29 H29            1.5406     2.8076     0.0021 H       
  30 H30           -0.1879    -2.6218    -0.0102 H       
  31 H31            3.9890    -0.1189    -0.0359 H       
  32 H32            2.1030    -4.3463     0.5472 H       
  33 H33           -0.0624    -4.8302     1.6252 H       
  34 H34           -0.8391    -4.9800     0.0299 H       
  35 H35            1.4372    -6.7218     1.0807 H       
  36 H36           -0.2683    -7.2106     0.9391 H       
  37 H37            0.9309    -7.9512    -0.9671 H       
  38 H38            2.7366    -6.3090    -0.9089 H       
  39 H39            1.9855    -6.4946    -2.5117 H       
  40 H40            0.5266    -4.5461    -2.0611 H       
  41 H41            2.2427    -4.0978    -1.9042 H       
  42 H42            8.2803     1.9552    -2.1283 H       
  43 H43            5.4299     0.8949    -2.8923 H       
  44 H44            4.6327     2.4239    -2.4507 H       
  45 H45            6.1874     2.4486    -3.3171 H       
  46 H46            7.1105     2.8038     3.5472 H       
  47 H47            5.8389     1.9004     4.4047 H       
  48 H48            7.1260     1.0239     3.5426 H       
@<TRIPOS>BOND
   1    1    2 1
   2    1    5 1
   3    1   28 1
   4    2    3 2
   5    3    4 1
   6    3    6 1
   7    4    5 2
   8    4    9 1
   9    5   29 1
  10    6    7 am
  11    6    8 2
  12    7   13 1
  13    7   30 1
  14    9   10 am
  15    9   31 1
  16   10   23 2
  17   10   12 1
  18   11   12 ar
  19   11   19 ar
  20   11   24 1
  21   12   22 ar
  22   13   14 1
  23   13   18 1
  24   13   32 1
  25   14   15 1
  26   14   33 1
  27   14   34 1
  28   15   16 1
  29   15   35 1
  30   15   36 1
  31   16   17 1
  32   16   37 1
  33   17   18 1
  34   17   38 1
  35   17   39 1
  36   18   40 1
  37   18   41 1
  38   19   20 ar
  39   20   21 ar
  40   20   25 1
  41   21   22 ar
  42   21   42 1
  43   22   26 1
  44   24   27 1
  45   26   43 1
  46   26   44 1
  47   26   45 1
  48   27   46 1
  49   27   47 1
  50   27   48 1

#	End of record

