#	Name: ASD03082298
#	Creating user name:	WinNT
#	Creation time:	15. 06. 2019 20:27

#	Modifying user name:	WinNT
#	Modification time:	15. 06. 2019 20:27

#	Program:	/corina/corina34_cracker 3.40 0067  02.08.2006

@<TRIPOS>MOLECULE
ASD03082298
  48   50    0    0    0
SMALL
NO_CHARGES


@<TRIPOS>ATOM
   1 N1            -0.0138     1.4263     0.0799 N.pl3   
   2 N2            -0.0360     0.0267    -0.0321 N.2     
   3 C3             1.1982    -0.3903     0.1363 C.2     
   4 N4             1.9882     0.6634     0.3463 N.2     
   5 C5             1.2722     1.7693     0.3155 C.2     
   6 N6             1.6157    -1.7221     0.1010 N.pl3   
   7 C7             2.9726    -2.0335     0.2362 C.ar    
   8 C8             3.8013    -1.2172     0.9954 C.ar    
   9 C9             5.1406    -1.5265     1.1274 C.ar    
  10 C10            5.6578    -2.6497     0.5036 C.ar    
  11 C11            4.8336    -3.4648    -0.2536 C.ar    
  12 C12            3.4921    -3.1624    -0.3837 C.ar    
  13 C13            1.7857     3.1444     0.5050 C.ar    
  14 C14           -1.1567     2.3349    -0.0410 C.3     
  15 C15            0.9245     4.1926     0.8462 C.ar    
  16 C16            1.4458     5.4595     1.0132 C.ar    
  17 N17            2.7353     5.6874     0.8554 N.ar    
  18 C18            3.5816     4.7277     0.5338 C.ar    
  19 C19            3.1469     3.4309     0.3535 C.ar    
  20 C20           -1.8022     2.5125     1.3090 C.2     
  21 N21           -2.8799     3.3110     1.4409 N.am    
  22 C22           -3.5074     3.4837     2.7534 C.3     
  23 O23           -1.3520     1.9368     2.2769 O.2     
  24 C24           -3.4237     4.0064     0.2718 C.3     
  25 C25            5.3994    -4.6859    -0.9316 C.3     
  26 C26            5.0441     5.0513     0.3676 C.3     
  27 F27            6.9685    -2.9502     0.6337 F       
  28 H28            0.9647    -2.4315    -0.0172 H       
  29 H29            3.3986    -0.3410     1.4817 H       
  30 H30            5.7854    -0.8919     1.7172 H       
  31 H31            2.8486    -3.8011    -0.9705 H       
  32 H32           -0.8147     3.3017    -0.4103 H       
  33 H33           -1.8820     1.9155    -0.7383 H       
  34 H34           -0.1325     4.0132     0.9767 H       
  35 H35            0.7890     6.2753     1.2763 H       
  36 H36            3.8453     2.6502     0.0903 H       
  37 H37           -3.0469     4.3268     3.2682 H       
  38 H38           -4.5728     3.6747     2.6244 H       
  39 H39           -3.3696     2.5780     3.3440 H       
  40 H40           -4.1748     3.3786    -0.2076 H       
  41 H41           -3.8814     4.9441     0.5871 H       
  42 H42           -2.6195     4.2140    -0.4341 H       
  43 H43            5.3243    -5.5416    -0.2606 H       
  44 H44            4.8373    -4.8886    -1.8432 H       
  45 H45            6.4459    -4.5108    -1.1813 H       
  46 H46            5.5532     4.9335     1.3241 H       
  47 H47            5.4849     4.3747    -0.3644 H       
  48 H48            5.1517     6.0797     0.0229 H       
@<TRIPOS>BOND
   1    1    2 1
   2    1    5 1
   3    1   14 1
   4    2    3 2
   5    3    4 1
   6    3    6 1
   7    4    5 2
   8    5   13 1
   9    6    7 1
  10    6   28 1
  11    7    8 ar
  12    7   12 ar
  13    8    9 ar
  14    8   29 1
  15    9   10 ar
  16    9   30 1
  17   10   11 ar
  18   10   27 1
  19   11   12 ar
  20   11   25 1
  21   12   31 1
  22   13   15 ar
  23   13   19 ar
  24   14   20 1
  25   14   32 1
  26   14   33 1
  27   15   16 ar
  28   15   34 1
  29   16   17 ar
  30   16   35 1
  31   17   18 ar
  32   18   19 ar
  33   18   26 1
  34   19   36 1
  35   20   21 am
  36   20   23 2
  37   21   22 1
  38   21   24 1
  39   22   37 1
  40   22   38 1
  41   22   39 1
  42   24   40 1
  43   24   41 1
  44   24   42 1
  45   25   43 1
  46   25   44 1
  47   25   45 1
  48   26   46 1
  49   26   47 1
  50   26   48 1

#	End of record

