#	Name: ASD01917089
#	Creating user name:	WinNT
#	Creation time:	15. 06. 2019 20:08

#	Modifying user name:	WinNT
#	Modification time:	15. 06. 2019 20:08

#	Program:	/corina/corina34_cracker 3.40 0067  02.08.2006

@<TRIPOS>MOLECULE
ASD01917089
  38   40    0    0    0
SMALL
NO_CHARGES


@<TRIPOS>ATOM
   1 C1            -0.0423     1.4706     0.1504 C.ar    
   2 C2            -0.0084    -0.0060     0.0629 C.2     
   3 N3             1.0564    -0.7655     0.2103 N.2     
   4 C4             0.7167    -2.0513     0.0663 C.2     
   5 N5            -0.5741    -2.1277    -0.1756 N.2     
   6 N6            -1.0681    -0.8132    -0.1769 N.pl3   
   7 C7            -2.4545    -0.3972    -0.4029 C.3     
   8 C8            -3.1971    -0.3909     0.9084 C.2     
   9 O9            -4.4922    -0.0397     0.9446 O.3     
  10 O10           -2.6269    -0.7020     1.9272 O.2     
  11 C11            1.6458    -3.2047     0.1629 C.ar    
  12 C12           -1.2476     2.1299     0.3933 C.ar    
  13 C13            1.1683    -4.5025    -0.0076 C.ar    
  14 C14            2.0345    -5.5739     0.0829 C.ar    
  15 C15            3.3754    -5.3633     0.3427 C.ar    
  16 C16            3.8591    -4.0733     0.5139 C.ar    
  17 C17            2.9982    -2.9924     0.4186 C.ar    
  18 C18           -1.2739     3.5064     0.4739 C.ar    
  19 C19           -0.1056     4.2347     0.3140 C.ar    
  20 C20            1.0941     3.5845     0.0721 C.ar    
  21 C21            1.1320     2.2080    -0.0041 C.ar    
  22 F22           -0.1365     5.5830     0.3939 F       
  23 O23            5.1785    -3.8706     0.7693 O.3     
  24 C24            6.0096    -5.0304     0.8481 C.3     
  25 H25           -2.4678     0.6043    -0.8328 H       
  26 H26           -2.9355    -1.0938    -1.0895 H       
  27 H27           -4.9261    -0.0509     1.8087 H       
  28 H28           -2.1586     1.5633     0.5177 H       
  29 H29            0.1209    -4.6703    -0.2100 H       
  30 H30            1.6630    -6.5794    -0.0495 H       
  31 H31            4.0489    -6.2047     0.4132 H       
  32 H32            3.3730    -1.9883     0.5515 H       
  33 H33           -2.2065     4.0178     0.6616 H       
  34 H34            2.0018     4.1565    -0.0522 H       
  35 H35            2.0675     1.7022    -0.1924 H       
  36 H36            5.6528    -5.6794     1.6478 H       
  37 H37            5.9739    -5.5680    -0.0994 H       
  38 H38            7.0361    -4.7283     1.0560 H       
@<TRIPOS>BOND
   1    1    2 1
   2    1   12 ar
   3    1   21 ar
   4    2    3 2
   5    2    6 1
   6    3    4 1
   7    4    5 2
   8    4   11 1
   9    5    6 1
  10    6    7 1
  11    7    8 1
  12    7   25 1
  13    7   26 1
  14    8    9 1
  15    8   10 2
  16    9   27 1
  17   11   13 ar
  18   11   17 ar
  19   12   18 ar
  20   12   28 1
  21   13   14 ar
  22   13   29 1
  23   14   15 ar
  24   14   30 1
  25   15   16 ar
  26   15   31 1
  27   16   17 ar
  28   16   23 1
  29   17   32 1
  30   18   19 ar
  31   18   33 1
  32   19   20 ar
  33   19   22 1
  34   20   21 ar
  35   20   34 1
  36   21   35 1
  37   23   24 1
  38   24   36 1
  39   24   37 1
  40   24   38 1

#	End of record

