#	Name: ASD01209199
#	Creating user name:	WinNT
#	Creation time:	15. 06. 2019 19:11

#	Modifying user name:	WinNT
#	Modification time:	15. 06. 2019 19:11

#	Program:	/corina/corina34_cracker 3.40 0067  02.08.2006

@<TRIPOS>MOLECULE
ASD01209199
  74   76    0    0    0
SMALL
NO_CHARGES


@<TRIPOS>ATOM
   1 O1            -2.0281     3.6222     3.0044 O.3     
   2 O2             0.3429     4.0335     4.0633 O.3     
   3 C3             7.0536     9.4242     4.9108 C.ar    
   4 C4             8.2839     9.6509     4.3116 C.ar    
   5 C5             8.4994     9.2704     2.9947 C.ar    
   6 C6             7.4863     8.6615     2.2732 C.ar    
   7 C7             6.2469     8.4316     2.8721 C.ar    
   8 C8             6.0363     8.8110     4.1981 C.ar    
   9 O9             9.7064     9.4957     2.4122 O.3     
  10 C10            5.1621     7.7829     2.1055 C.2     
  11 N11            3.9660     7.5617     2.6858 N.am    
  12 O12            5.3490     7.4489     0.9517 O.2     
  13 C13            2.9467     6.9522     1.9655 C.2     
  14 P14           -0.5095     4.0602     2.6977 P.3     
  15 O15            0.0884     3.1192     1.7244 O.2     
  16 C16           -0.4917     5.7456     2.0032 C.3     
  17 N17            1.7630     6.6942     2.4269 N.2     
  18 S18            3.0683     6.4396     0.3390 S.3     
  19 C19            1.4044     5.8624     0.3856 C.2     
  20 C20            0.9148     6.1089     1.6023 C.2     
  21 C21           -2.3845     2.3149     3.4585 C.3     
  22 C22           -3.9004     2.2373     3.6505 C.3     
  23 C23            0.6053     2.8336     4.7936 C.3     
  24 C24            1.4377     3.1634     6.0343 C.3     
  25 O25            6.8477     9.7992     6.2008 O.3     
  26 C26            5.5984     9.4345     6.7910 C.3     
  27 C27            5.7524     9.3700     8.3119 C.3     
  28 C28            4.5396    10.4781     6.4294 C.3     
  29 C29           10.7406    10.0232     3.2454 C.3     
  30 C30           12.1054     9.6472     2.6639 C.3     
  31 C31           13.2110    10.1845     3.5780 C.3     
  32 N32           13.0112    11.6283     3.7636 N.am    
  33 C33           11.7034    12.1058     4.2330 C.3     
  34 C34           10.6146    11.5470     3.3115 C.3     
  35 S35           14.2368    12.6969     3.4502 S.o2    
  36 O36           15.4219    11.9354     3.6370 O.2     
  37 C37           14.0258    13.1272     1.7007 C.3     
  38 O38           13.9467    13.8153     4.2773 O.2     
  39 H39            9.0763    10.1252     4.8716 H       
  40 H40            7.6547     8.3660     1.2482 H       
  41 H41            5.0787     8.6349     4.6654 H       
  42 H42            3.8169     7.8282     3.6065 H       
  43 H43           -1.1406     5.7849     1.1282 H       
  44 H44           -0.8496     6.4513     2.7528 H       
  45 H45            0.8724     5.3942    -0.4293 H       
  46 H46           -2.0736     1.5764     2.7195 H       
  47 H47           -1.8872     2.1116     4.4069 H       
  48 H48           -4.3977     2.4407     2.7021 H       
  49 H49           -4.1722     1.2402     3.9968 H       
  50 H50           -4.2113     2.9759     4.3895 H       
  51 H51           -0.3378     2.3803     5.0987 H       
  52 H52            1.1557     2.1366     4.1616 H       
  53 H53            1.6378     2.2481     6.5914 H       
  54 H54            2.3808     3.6166     5.7291 H       
  55 H55            0.8873     3.8603     6.6663 H       
  56 H56            5.2902     8.4589     6.4153 H       
  57 H57            6.0606    10.3456     8.6876 H       
  58 H58            4.7994     9.0918     8.7620 H       
  59 H59            6.5067     8.6265     8.5695 H       
  60 H60            3.5867    10.1999     6.8796 H       
  61 H61            4.8479    11.4538     6.8051 H       
  62 H62            4.4299    10.5241     5.3459 H       
  63 H63           10.6462     9.6074     4.2485 H       
  64 H64           12.1852     8.5623     2.5954 H       
  65 H65           12.2104    10.0837     1.6707 H       
  66 H66           13.1629     9.6819     4.5440 H       
  67 H67           14.1834    10.0063     3.1190 H       
  68 H68           11.5324    11.7598     5.2524 H       
  69 H69           11.6810    13.1953     4.2061 H       
  70 H70           10.7337    11.9656     2.3122 H       
  71 H71            9.6334    11.8142     3.7039 H       
  72 H72           13.0447    13.5787     1.5533 H       
  73 H73           14.7998    13.8354     1.4048 H       
  74 H74           14.1061    12.2262     1.0926 H       
@<TRIPOS>BOND
   1    1   21 1
   2    1   14 1
   3    2   23 1
   4    2   14 1
   5    3    4 ar
   6    3   25 1
   7    3    8 ar
   8    4    5 ar
   9    4   39 1
  10    5    6 ar
  11    5    9 1
  12    6    7 ar
  13    6   40 1
  14    7    8 ar
  15    7   10 1
  16    8   41 1
  17    9   29 1
  18   10   11 am
  19   10   12 2
  20   11   13 1
  21   11   42 1
  22   13   17 2
  23   13   18 1
  24   14   15 2
  25   14   16 1
  26   16   20 1
  27   16   43 1
  28   16   44 1
  29   17   20 1
  30   18   19 1
  31   19   20 2
  32   19   45 1
  33   21   22 1
  34   21   46 1
  35   21   47 1
  36   22   48 1
  37   22   49 1
  38   22   50 1
  39   23   24 1
  40   23   51 1
  41   23   52 1
  42   24   53 1
  43   24   54 1
  44   24   55 1
  45   25   26 1
  46   26   27 1
  47   26   28 1
  48   26   56 1
  49   27   57 1
  50   27   58 1
  51   27   59 1
  52   28   60 1
  53   28   61 1
  54   28   62 1
  55   29   30 1
  56   29   34 1
  57   29   63 1
  58   30   31 1
  59   30   64 1
  60   30   65 1
  61   31   32 1
  62   31   66 1
  63   31   67 1
  64   32   33 1
  65   32   35 am
  66   33   34 1
  67   33   68 1
  68   33   69 1
  69   34   70 1
  70   34   71 1
  71   35   36 2
  72   35   37 1
  73   35   38 2
  74   37   72 1
  75   37   73 1
  76   37   74 1

#	End of record

