#	Name: ASD01000081
#	Creating user name:	WinNT
#	Creation time:	15. 06. 2019 18:54

#	Modifying user name:	WinNT
#	Modification time:	15. 06. 2019 18:54

#	Program:	/corina/corina34_cracker 3.40 0067  02.08.2006

@<TRIPOS>MOLECULE
ASD01000081
  53   56    0    0    0
SMALL
NO_CHARGES


@<TRIPOS>ATOM
   1 C1             2.7153     0.9126    -2.0924 C.ar    
   2 C2             2.3119    -0.3498    -1.6994 C.ar    
   3 C3             1.6089    -0.5150    -0.5207 C.ar    
   4 C4             1.3096     0.5821     0.2652 C.ar    
   5 C5             1.7139     1.8444    -0.1274 C.ar    
   6 C6             2.4157     2.0098    -1.3068 C.ar    
   7 C7             1.1682    -1.8911    -0.0927 C.3     
   8 C8             2.3787    -2.7650     0.1125 C.ar    
   9 C9             3.6521    -2.2112    -0.0011 C.ar    
  10 C10            4.7662    -2.9727     0.1777 C.ar    
  11 C11            4.6335    -4.3380     0.4821 C.ar    
  12 C12            3.3379    -4.9013     0.5982 C.ar    
  13 C13            2.2115    -4.0825     0.4117 C.ar    
  14 S14            0.2378    -1.7725     1.4599 S.3     
  15 C15            1.4959    -1.2308     2.6492 C.3     
  16 C16            0.8344    -0.9537     4.0007 C.3     
  17 C17            0.2900    -2.4919    -1.1599 C.ar    
  18 C18           -1.0723    -2.2582    -1.1465 C.ar    
  19 N19           -0.1772     0.0999     3.8439 N.3     
  20 C20           -1.8779    -2.8093    -2.1254 C.ar    
  21 C21           -1.3209    -3.5939    -3.1180 C.ar    
  22 C22            0.0416    -3.8269    -3.1320 C.ar    
  23 C23            0.8477    -3.2722    -2.1556 C.ar    
  24 C24            5.7601    -5.1562     0.6732 C.ar    
  25 C25            5.5929    -6.4745     0.9664 C.ar    
  26 C26            4.3190    -7.0284     1.0806 C.ar    
  27 C27            3.2052    -6.2670     0.9023 C.ar    
  28 C28            1.8795    -0.5037     4.9887 C.2     
  29 O29            2.0121     0.6718     5.2345 O.2     
  30 O30            2.6632    -1.4088     5.5956 O.3     
  31 H31            3.2685     1.0411    -3.0111 H       
  32 H32            2.5457    -1.2070    -2.3134 H       
  33 H33            0.7598     0.4531     1.1857 H       
  34 H34            1.4795     2.7017     0.4863 H       
  35 H35            2.7318     2.9959    -1.6133 H       
  36 H36            3.7569    -1.1620    -0.2350 H       
  37 H37            5.7469    -2.5299     0.0858 H       
  38 H38            1.2183    -4.4979     0.4971 H       
  39 H39            2.2464    -2.0126     2.7655 H       
  40 H40            1.9725    -0.3209     2.2846 H       
  41 H41            0.3577    -1.8637     4.3652 H       
  42 H42           -1.5074    -1.6453    -0.3710 H       
  43 H43            0.2401     0.9545     3.5067 H       
  44 H44           -0.9232    -0.2027     3.2358 H       
  45 H45           -2.9423    -2.6273    -2.1145 H       
  46 H46           -1.9504    -4.0250    -3.8824 H       
  47 H47            0.4766    -4.4401    -3.9073 H       
  48 H48            1.9122    -3.4542    -2.1664 H       
  49 H49            6.7534    -4.7409     0.5874 H       
  50 H50            6.4604    -7.1011     1.1124 H       
  51 H51            4.2142    -8.0776     1.3142 H       
  52 H52            2.2245    -6.7099     0.9943 H       
  53 H53            3.3191    -1.0723     6.2215 H       
@<TRIPOS>BOND
   1    1    2 ar
   2    1    6 ar
   3    1   31 1
   4    2    3 ar
   5    2   32 1
   6    3    4 ar
   7    3    7 1
   8    4    5 ar
   9    4   33 1
  10    5    6 ar
  11    5   34 1
  12    6   35 1
  13    7    8 1
  14    7   14 1
  15    7   17 1
  16    8    9 ar
  17    8   13 ar
  18    9   10 ar
  19    9   36 1
  20   10   11 ar
  21   10   37 1
  22   11   12 ar
  23   11   24 ar
  24   12   13 ar
  25   12   27 ar
  26   13   38 1
  27   14   15 1
  28   15   16 1
  29   15   39 1
  30   15   40 1
  31   16   28 1
  32   16   19 1
  33   16   41 1
  34   17   18 ar
  35   17   23 ar
  36   18   20 ar
  37   18   42 1
  38   19   43 1
  39   19   44 1
  40   20   21 ar
  41   20   45 1
  42   21   22 ar
  43   21   46 1
  44   22   23 ar
  45   22   47 1
  46   23   48 1
  47   24   25 ar
  48   24   49 1
  49   25   26 ar
  50   25   50 1
  51   26   27 ar
  52   26   51 1
  53   27   52 1
  54   28   29 2
  55   28   30 1
  56   30   53 1

#	End of record

