#	Name: ASD00111016
#	Creating user name:	WinNT
#	Creation time:	15. 06. 2019 18:30

#	Modifying user name:	WinNT
#	Modification time:	15. 06. 2019 18:30

#	Program:	/corina/corina34_cracker 3.40 0067  02.08.2006

@<TRIPOS>MOLECULE
ASD00111016
  32   33    0    0    0
SMALL
NO_CHARGES


@<TRIPOS>ATOM
   1 C1            -0.0169     1.3974     0.0097 C.ar    
   2 C2             0.0021    -0.0041     0.0020 C.ar    
   3 C3            -1.1925    -0.7090     0.0091 C.ar    
   4 C4            -2.3933    -0.0252     0.0235 C.ar    
   5 C5            -2.4161     1.3513     0.0319 C.ar    
   6 C6            -1.2409     2.0724     0.0309 C.ar    
   7 C7            -3.6953    -0.8001     0.0297 C.3     
   8 C8            -4.3590    -0.6156     1.3978 C.3     
   9 N9            -5.1419     0.6088     1.4328 N.3     
  10 C10           -4.3995     1.8586     1.4135 C.3     
  11 C11           -3.7432     2.0825     0.0481 C.3     
  12 C12           -3.5104     3.5784    -0.1731 C.3     
  13 O13            1.1850    -0.6689    -0.0128 O.3     
  14 C14            1.1267    -2.0967    -0.0199 C.3     
  15 C15            1.2111     2.1339     0.0020 C.1     
  16 N16            2.1853     2.7182    -0.0042 N.1     
  17 H17           -1.1842    -1.7890     0.0030 H       
  18 H18           -1.2659     3.1521     0.0381 H       
  19 H19           -4.3530    -0.4197    -0.7519 H       
  20 H20           -3.4942    -1.8577    -0.1413 H       
  21 H21           -5.0127    -1.4649     1.5965 H       
  22 H22           -3.5880    -0.5702     2.1669 H       
  23 H23           -5.8563     0.6017     0.7203 H       
  24 H24           -5.0806     2.6833     1.6234 H       
  25 H25           -3.6269     1.8284     2.1818 H       
  26 H26           -4.3881     1.6903    -0.7382 H       
  27 H27           -2.8570     3.9640     0.6095 H       
  28 H28           -3.0433     3.7335    -1.1456 H       
  29 H29           -4.4652     4.1033    -0.1407 H       
  30 H30            0.6069    -2.4436     0.8732 H       
  31 H31            0.5901    -2.4340    -0.9066 H       
  32 H32            2.1386    -2.5017    -0.0316 H       
@<TRIPOS>BOND
   1    1    2 ar
   2    1   15 1
   3    1    6 ar
   4    2    3 ar
   5    2   13 1
   6    3    4 ar
   7    3   17 1
   8    4    5 ar
   9    4    7 1
  10    5    6 ar
  11    5   11 1
  12    6   18 1
  13    7    8 1
  14    7   19 1
  15    7   20 1
  16    8    9 1
  17    8   21 1
  18    8   22 1
  19    9   10 1
  20    9   23 1
  21   10   11 1
  22   10   24 1
  23   10   25 1
  24   11   12 1
  25   11   26 1
  26   12   27 1
  27   12   28 1
  28   12   29 1
  29   13   14 1
  30   14   30 1
  31   14   31 1
  32   14   32 1
  33   15   16 3

#	End of record

