#	Name: ASD02560451
#	Creating user name:	WinNT
#	Creation time:	15. 06. 2019 20:25

#	Modifying user name:	WinNT
#	Modification time:	15. 06. 2019 20:25

#	Program:	/corina/corina34_cracker 3.40 0067  02.08.2006

@<TRIPOS>MOLECULE
ASD02560451
  39   41    0    0    0
SMALL
NO_CHARGES


@<TRIPOS>ATOM
   1 C1             0.0895    -1.6609    -3.3081 C.2     
   2 C2             0.2681    -2.4712    -2.1727 C.2     
   3 C3             1.3850    -2.3608    -1.4256 C.2     
   4 N4             2.3598    -1.4611    -1.7601 N.pl3   
   5 C5             2.2130    -0.6555    -2.8655 C.2     
   6 C6             1.0490    -0.7618    -3.6540 C.2     
   7 C7             3.5656    -1.1473    -1.1934 C.2     
   8 C8             4.1215    -0.1703    -1.9543 C.2     
   9 N9             3.2872     0.1125    -2.9605 N.2     
  10 C10            5.4552     0.4860    -1.7065 C.3     
  11 N11            4.1206    -1.7246    -0.0453 N.pl3   
  12 C12            3.4168    -2.7101     0.6508 C.ar    
  13 C13            6.3692     0.2547    -2.9115 C.3     
  14 C14            5.2537     1.9886    -1.5002 C.3     
  15 C15            3.5914    -4.0497     0.3280 C.ar    
  16 C16            2.8942    -5.0218     1.0188 C.ar    
  17 C17            2.0230    -4.6631     2.0308 C.ar    
  18 C18            1.8459    -3.3302     2.3557 C.ar    
  19 C19            2.5437    -2.3528     1.6728 C.ar    
  20 C20            4.5402    -4.4423    -0.7750 C.3     
  21 Cl21           2.3216    -0.6802     2.0813 Cl      
  22 H22           -0.8049    -1.7556    -3.9059 H       
  23 H23           -0.4937    -3.1855    -1.8975 H       
  24 H24            1.5110    -2.9879    -0.5553 H       
  25 H25            0.9212    -0.1356    -4.5246 H       
  26 H26            5.9123     0.0551    -0.8157 H       
  27 H27            4.9939    -1.4404     0.2668 H       
  28 H28            5.9121     0.6856    -3.8022 H       
  29 H29            7.3339     0.7295    -2.7322 H       
  30 H30            6.5128    -0.8157    -3.0584 H       
  31 H31            4.7966     2.4195    -2.3910 H       
  32 H32            4.6025     2.1534    -0.6418 H       
  33 H33            6.2183     2.4634    -1.3210 H       
  34 H34            3.0295    -6.0635     0.7678 H       
  35 H35            1.4791    -5.4255     2.5688 H       
  36 H36            1.1644    -3.0537     3.1465 H       
  37 H37            5.5351    -4.6013    -0.3591 H       
  38 H38            4.1912    -5.3621    -1.2442 H       
  39 H39            4.5806    -3.6472    -1.5196 H       
@<TRIPOS>BOND
   1    1    2 1
   2    1    6 2
   3    1   22 1
   4    2    3 2
   5    2   23 1
   6    3    4 1
   7    3   24 1
   8    4    5 1
   9    4    7 1
  10    5    6 1
  11    5    9 2
  12    6   25 1
  13    7    8 2
  14    7   11 1
  15    8    9 1
  16    8   10 1
  17   10   13 1
  18   10   14 1
  19   10   26 1
  20   11   12 1
  21   11   27 1
  22   12   15 ar
  23   12   19 ar
  24   13   28 1
  25   13   29 1
  26   13   30 1
  27   14   31 1
  28   14   32 1
  29   14   33 1
  30   15   16 ar
  31   15   20 1
  32   16   17 ar
  33   16   34 1
  34   17   18 ar
  35   17   35 1
  36   18   19 ar
  37   18   36 1
  38   19   21 1
  39   20   37 1
  40   20   38 1
  41   20   39 1

#	End of record

