#	Name: ASD02500720
#	Creating user name:	WinNT
#	Creation time:	15. 06. 2019 20:23

#	Modifying user name:	WinNT
#	Modification time:	15. 06. 2019 20:23

#	Program:	/corina/corina34_cracker 3.40 0067  02.08.2006

@<TRIPOS>MOLECULE
ASD02500720
  61   65    0    0    0
SMALL
NO_CHARGES


@<TRIPOS>ATOM
   1 C1            -0.0432     1.1256    -0.0127 C.ar    
   2 C2            -0.1636    -0.2377    -0.2162 C.ar    
   3 C3             0.9554    -1.0440    -0.1867 C.ar    
   4 C4             2.2109    -0.4818     0.0491 C.ar    
   5 C5             2.3254     0.8942     0.2535 C.ar    
   6 C6             1.1985     1.6893     0.2214 C.ar    
   7 S7            -1.4765     2.1493    -0.0593 S.o2    
   8 O8            -1.0241     3.4591    -0.3739 O.2     
   9 O9            -2.4419     1.4531    -0.8356 O.2     
  10 N10           -2.0786     2.2202     1.4818 N.am    
  11 N11           -2.2007     1.1710     4.0796 N.ar    
  12 C12           -2.2815     0.6576     5.2831 C.ar    
  13 C13           -1.5161     1.1452     6.3404 C.ar    
  14 C14           -0.6543     2.1846     6.1351 C.ar    
  15 C15           -0.5708     2.7329     4.8408 C.ar    
  16 C16            0.2934     3.8022     4.5560 C.ar    
  17 C17            0.3520     4.3106     3.2938 C.ar    
  18 C18           -0.4349     3.7858     2.2731 C.ar    
  19 C19           -1.2953     2.7365     2.5132 C.ar    
  20 C20           -1.3778     2.1884     3.8122 C.ar    
  21 C21            3.4143    -1.3400     0.0825 C.2     
  22 O22            4.4226    -0.9961    -0.5029 O.2     
  23 N23            3.3934    -2.5037     0.7621 N.am    
  24 C24            4.6069    -3.3249     0.8905 C.3     
  25 C25            4.8146    -3.6583     2.3716 C.3     
  26 N26            3.5915    -4.2692     2.9090 N.3     
  27 C27            2.4608    -3.3329     2.8564 C.3     
  28 C28            2.1581    -2.9831     1.4003 C.3     
  29 C29            3.8054    -4.7600     4.2769 C.3     
  30 C30            2.4824    -5.1527     4.8823 C.ar    
  31 C31            2.0133    -6.4451     4.7394 C.ar    
  32 C32            0.7997    -6.8053     5.2946 C.ar    
  33 C33            0.0554    -5.8732     5.9933 C.ar    
  34 C34            0.5250    -4.5810     6.1371 C.ar    
  35 C35            1.7406    -4.2220     5.5855 C.ar    
  36 H36           -1.1358    -0.6715    -0.3982 H       
  37 H37            0.8600    -2.1081    -0.3453 H       
  38 H38            3.2940     1.3354     0.4368 H       
  39 H39            1.2857     2.7541     0.3795 H       
  40 H40           -2.9762     1.9024     1.6669 H       
  41 H41           -2.9592    -0.1645     5.4597 H       
  42 H42           -1.6046     0.7020     7.3212 H       
  43 H43           -0.0538     2.5754     6.9432 H       
  44 H44            0.9106     4.2213     5.3369 H       
  45 H45            1.0188     5.1334     3.0820 H       
  46 H46           -0.3707     4.2064     1.2804 H       
  47 H47            4.4872    -4.2465     0.3210 H       
  48 H48            5.4665    -2.7689     0.5162 H       
  49 H49            5.6453    -4.3565     2.4742 H       
  50 H50            5.0370    -2.7444     2.9225 H       
  51 H51            1.5844    -3.7951     3.3106 H       
  52 H52            2.7160    -2.4235     3.4005 H       
  53 H53            1.3994    -2.2013     1.3629 H       
  54 H54            1.7984    -3.8713     0.8807 H       
  55 H55            4.4656    -5.6270     4.2528 H       
  56 H56            4.2609    -3.9732     4.8782 H       
  57 H57            2.5947    -7.1734     4.1935 H       
  58 H58            0.4328    -7.8148     5.1823 H       
  59 H59           -0.8931    -6.1544     6.4265 H       
  60 H60           -0.0567    -3.8526     6.6826 H       
  61 H61            2.1092    -3.2134     5.7009 H       
@<TRIPOS>BOND
   1    1    2 ar
   2    1    6 ar
   3    1    7 1
   4    2    3 ar
   5    2   36 1
   6    3    4 ar
   7    3   37 1
   8    4    5 ar
   9    4   21 1
  10    5    6 ar
  11    5   38 1
  12    6   39 1
  13    7    8 2
  14    7    9 2
  15    7   10 am
  16   10   19 1
  17   10   40 1
  18   11   12 ar
  19   11   20 ar
  20   12   13 ar
  21   12   41 1
  22   13   14 ar
  23   13   42 1
  24   14   15 ar
  25   14   43 1
  26   15   16 ar
  27   15   20 ar
  28   16   17 ar
  29   16   44 1
  30   17   18 ar
  31   17   45 1
  32   18   19 ar
  33   18   46 1
  34   19   20 ar
  35   21   22 2
  36   21   23 am
  37   23   24 1
  38   23   28 1
  39   24   25 1
  40   24   47 1
  41   24   48 1
  42   25   26 1
  43   25   49 1
  44   25   50 1
  45   26   27 1
  46   26   29 1
  47   27   28 1
  48   27   51 1
  49   27   52 1
  50   28   53 1
  51   28   54 1
  52   29   30 1
  53   29   55 1
  54   29   56 1
  55   30   31 ar
  56   30   35 ar
  57   31   32 ar
  58   31   57 1
  59   32   33 ar
  60   32   58 1
  61   33   34 ar
  62   33   59 1
  63   34   35 ar
  64   34   60 1
  65   35   61 1

#	End of record

