#	Name: ASD03331304
#	Creating user name:	WinNT
#	Creation time:	15. 06. 2019 20:38

#	Modifying user name:	WinNT
#	Modification time:	15. 06. 2019 20:38

#	Program:	/corina/corina34_cracker 3.40 0067  02.08.2006

@<TRIPOS>MOLECULE
ASD03331304
  33   35    0    0    0
SMALL
NO_CHARGES


@<TRIPOS>ATOM
   1 C1             2.0821     1.4081     0.7948 C.ar    
   2 C2             2.1107     0.0294     0.7918 C.ar    
   3 C3             1.2211    -0.6831    -0.0133 C.ar    
   4 C4             0.3056     0.0065    -0.8126 C.ar    
   5 C5             0.2871     1.3886    -0.8005 C.ar    
   6 C6             1.1728     2.0875     0.0008 C.ar    
   7 Cl7            1.1441     3.8233     0.0110 Cl      
   8 C8             1.2474    -2.1616    -0.0210 C.2     
   9 N9             2.3652    -2.9375    -0.1325 N.pl3   
  10 C10            1.9609    -4.2354    -0.1222 C.2     
  11 C11            0.6068    -4.2341     0.0228 C.2     
  12 N12            0.2007    -2.9462     0.0839 N.2     
  13 C13            3.7523    -2.4710    -0.2246 C.3     
  14 C14            4.5861    -3.5138    -0.9742 C.3     
  15 C15            5.0837    -4.5774     0.0024 C.3     
  16 O16            3.9933    -5.2714     0.5967 O.3     
  17 C17            2.8632    -5.4327    -0.2677 C.3     
  18 C18           -0.2588    -5.4220     0.1042 C.2     
  19 O19            0.2279    -6.5340     0.0415 O.2     
  20 O20           -1.5911    -5.2765     0.2482 O.3     
  21 F21           -0.5588    -0.6757    -1.5953 F       
  22 H22            2.7675     1.9596     1.4213 H       
  23 H23            2.8207    -0.4982     1.4114 H       
  24 H24           -0.4195     1.9238    -1.4174 H       
  25 H25            3.7830    -1.5243    -0.7639 H       
  26 H26            4.1573    -2.3331     0.7779 H       
  27 H27            3.9720    -3.9853    -1.7415 H       
  28 H28            5.4398    -3.0255    -1.4441 H       
  29 H29            5.7124    -5.2890    -0.5328 H       
  30 H30            5.6724    -4.0981     0.7846 H       
  31 H31            2.3186    -6.3356     0.0085 H       
  32 H32            3.2021    -5.5108    -1.3007 H       
  33 H33           -2.1183    -6.0857     0.2970 H       
@<TRIPOS>BOND
   1    1    2 ar
   2    1    6 ar
   3    1   22 1
   4    2    3 ar
   5    2   23 1
   6    3    4 ar
   7    3    8 1
   8    4    5 ar
   9    4   21 1
  10    5    6 ar
  11    5   24 1
  12    6    7 1
  13    8    9 1
  14    8   12 2
  15    9   10 1
  16    9   13 1
  17   10   11 2
  18   10   17 1
  19   11   12 1
  20   11   18 1
  21   13   14 1
  22   13   25 1
  23   13   26 1
  24   14   15 1
  25   14   27 1
  26   14   28 1
  27   15   16 1
  28   15   29 1
  29   15   30 1
  30   16   17 1
  31   17   31 1
  32   17   32 1
  33   18   19 2
  34   18   20 1
  35   20   33 1

#	End of record

