#	Name: ASD01816005
#	Creating user name:	WinNT
#	Creation time:	15. 06. 2019 19:34

#	Modifying user name:	WinNT
#	Modification time:	15. 06. 2019 19:34

#	Program:	/corina/corina34_cracker 3.40 0067  02.08.2006

@<TRIPOS>MOLECULE
ASD01816005
  46   51    0    0    0
SMALL
NO_CHARGES


@<TRIPOS>ATOM
   1 C1            -0.0167     1.3813     0.0096 C.ar    
   2 C2             0.0021    -0.0041     0.0020 C.ar    
   3 C3             1.1985    -0.6908    -0.0131 C.ar    
   4 C4             2.4014     0.0060    -0.0209 C.ar    
   5 C5             2.3791     1.4105    -0.0132 C.ar    
   6 C6             1.1663     2.0916     0.0022 C.ar    
   7 N7             3.6066    -0.6779    -0.0356 N.pl3   
   8 C8             4.7997    -0.0570    -0.0437 C.2     
   9 C9             4.9005     1.3120    -0.0378 C.2     
  10 C10            3.6669     2.1305    -0.0217 C.2     
  11 C11            5.9969     2.2760    -0.0441 C.2     
  12 N12            5.4230     3.4985    -0.0330 N.am    
  13 N13            4.0309     3.3809    -0.0196 N.2     
  14 C14            6.1236     4.7114    -0.0346 C.ar    
  15 O15            7.1914     2.0272    -0.0564 O.2     
  16 C16            3.5813    -2.0735    -0.0419 C.ar    
  17 C17            6.5505     5.2669    -1.2334 C.ar    
  18 C18            7.2412     6.4630    -1.2319 C.ar    
  19 C19            7.5088     7.1083    -0.0383 C.ar    
  20 C20            7.0860     6.5594     1.1582 C.ar    
  21 C21            6.3884     5.3650     1.1640 C.ar    
  22 F22            5.9748     4.8287     2.3330 F       
  23 C23            3.5800    -2.7916     1.1700 C.ar    
  24 C24            3.5514    -2.7655    -1.2349 C.ar    
  25 C25            3.5251    -4.1570    -1.2508 C.ar    
  26 C26            3.5280    -4.8757    -0.0936 C.ar    
  27 C27            3.5536    -4.2096     1.1419 C.ar    
  28 C28            3.5582    -4.9051     2.3622 C.ar    
  29 N29            3.5829    -4.2406     3.4937 N.ar    
  30 C30            3.6042    -2.9160     3.5474 C.ar    
  31 C31            3.6045    -2.1508     2.4200 C.ar    
  32 H32           -0.9602     1.9068     0.0170 H       
  33 H33           -0.9288    -0.5516     0.0083 H       
  34 H34            1.2005    -1.7708    -0.0186 H       
  35 H35            1.1507     3.1715     0.0077 H       
  36 H36            5.7017    -0.6508    -0.0548 H       
  37 H37            6.3429     4.7639    -2.1663 H       
  38 H38            7.5731     6.8950    -2.1645 H       
  39 H39            8.0497     8.0430    -0.0408 H       
  40 H40            7.2969     7.0656     2.0886 H       
  41 H41            3.5481    -2.2211    -2.1677 H       
  42 H42            3.5016    -4.6762    -2.1975 H       
  43 H43            3.5065    -5.9550    -0.1264 H       
  44 H44            3.5410    -5.9850     2.3694 H       
  45 H45            3.6236    -2.4300     4.5117 H       
  46 H46            3.6221    -1.0729     2.4860 H       
@<TRIPOS>BOND
   1    1    2 ar
   2    1    6 ar
   3    1   32 1
   4    2    3 ar
   5    2   33 1
   6    3    4 ar
   7    3   34 1
   8    4    5 ar
   9    4    7 1
  10    5    6 ar
  11    5   10 1
  12    6   35 1
  13    7    8 1
  14    7   16 1
  15    8    9 2
  16    8   36 1
  17    9   10 1
  18    9   11 1
  19   10   13 2
  20   11   12 am
  21   11   15 2
  22   12   13 1
  23   12   14 1
  24   14   17 ar
  25   14   21 ar
  26   16   23 ar
  27   16   24 ar
  28   17   18 ar
  29   17   37 1
  30   18   19 ar
  31   18   38 1
  32   19   20 ar
  33   19   39 1
  34   20   21 ar
  35   20   40 1
  36   21   22 1
  37   23   27 ar
  38   23   31 ar
  39   24   25 ar
  40   24   41 1
  41   25   26 ar
  42   25   42 1
  43   26   27 ar
  44   26   43 1
  45   27   28 ar
  46   28   29 ar
  47   28   44 1
  48   29   30 ar
  49   30   31 ar
  50   30   45 1
  51   31   46 1

#	End of record

