#	Name: ASD03091372
#	Creating user name:	WinNT
#	Creation time:	15. 06. 2019 20:30

#	Modifying user name:	WinNT
#	Modification time:	15. 06. 2019 20:30

#	Program:	/corina/corina34_cracker 3.40 0067  02.08.2006

@<TRIPOS>MOLECULE
ASD03091372
  48   52    0    0    0
SMALL
NO_CHARGES


@<TRIPOS>ATOM
   1 N1            -0.0151     1.2721    -0.1512 N.am    
   2 C2            -0.0380    -0.0852    -0.0923 C.2     
   3 N3            -1.1315    -0.7761     0.0200 N.2     
   4 C4            -2.3470    -0.1764     0.0872 C.ar    
   5 C5            -2.4198     1.2350     0.0334 C.ar    
   6 C6            -1.1637     1.9849    -0.0885 C.2     
   7 O7            -1.1562     3.2014    -0.1400 O.2     
   8 C8            -3.5215    -0.9165     0.2073 C.ar    
   9 C9            -4.7390    -0.2583     0.2718 C.ar    
  10 C10           -4.7979     1.1360     0.2176 C.ar    
  11 C11           -3.6571     1.8762     0.1001 C.ar    
  12 N12           -5.9145    -0.9937     0.3912 N.3     
  13 C13            1.2662     1.9710    -0.2776 C.3     
  14 C14           -5.6485    -2.4327     0.2780 C.3     
  15 C15           -6.5987    -0.6911     1.6562 C.3     
  16 C16           -8.1059    -0.6622     1.4506 C.3     
  17 C17           -8.7145    -2.0379     1.2673 C.3     
  18 N18           -7.7130    -3.0999     1.4394 N.3     
  19 C19           -6.9264    -3.2541     0.2062 C.3     
  20 C20           -6.1510    -1.6832     2.7139 C.3     
  21 C21           -6.9591    -2.9696     2.6678 C.3     
  22 C22            1.2724    -0.8263    -0.1613 C.3     
  23 C23            1.3292    -2.2208     0.4656 C.3     
  24 C24            1.3369    -2.0654    -1.0565 C.3     
  25 H25           -3.4831    -1.9950     0.2493 H       
  26 H26           -5.7552     1.6333     0.2689 H       
  27 H27           -3.7120     2.9541     0.0592 H       
  28 H28            1.8014     1.5937    -1.1490 H       
  29 H29            1.0870     3.0396    -0.3958 H       
  30 H30            1.8635     1.7996     0.6179 H       
  31 H31           -5.0615    -2.6134    -0.6225 H       
  32 H32           -5.0705    -2.7541     1.1444 H       
  33 H33           -6.2825     0.2999     1.9819 H       
  34 H34           -8.5677    -0.1884     2.3167 H       
  35 H35           -8.3267    -0.0619     0.5680 H       
  36 H36           -9.5092    -2.1759     2.0004 H       
  37 H37           -9.1395    -2.1084     0.2660 H       
  38 H38           -7.5213    -2.9191    -0.6435 H       
  39 H39           -6.6706    -4.3052     0.0724 H       
  40 H40           -5.0989    -1.9198     2.5550 H       
  41 H41           -6.2654    -1.2280     3.6977 H       
  42 H42           -7.6508    -2.9829     3.5102 H       
  43 H43           -6.2796    -3.8172     2.7572 H       
  44 H44            2.1668    -0.2070    -0.0933 H       
  45 H45            2.2612    -2.5191     0.9457 H       
  46 H46            0.4188    -2.6022     0.9279 H       
  47 H47            0.4316    -2.3446    -1.5955 H       
  48 H48            2.2739    -2.2615    -1.5777 H       
@<TRIPOS>BOND
   1    1    2 1
   2    1   13 1
   3    1    6 am
   4    2    3 2
   5    2   22 1
   6    3    4 1
   7    4    5 ar
   8    4    8 ar
   9    5    6 1
  10    5   11 ar
  11    6    7 2
  12    8    9 ar
  13    8   25 1
  14    9   10 ar
  15    9   12 1
  16   10   11 ar
  17   10   26 1
  18   11   27 1
  19   12   15 1
  20   12   14 1
  21   13   28 1
  22   13   29 1
  23   13   30 1
  24   14   19 1
  25   14   31 1
  26   14   32 1
  27   15   16 1
  28   15   20 1
  29   15   33 1
  30   16   17 1
  31   16   34 1
  32   16   35 1
  33   17   18 1
  34   17   36 1
  35   17   37 1
  36   18   19 1
  37   18   21 1
  38   19   38 1
  39   19   39 1
  40   20   21 1
  41   20   40 1
  42   20   41 1
  43   21   42 1
  44   21   43 1
  45   22   23 1
  46   22   24 1
  47   22   44 1
  48   23   24 1
  49   23   45 1
  50   23   46 1
  51   24   47 1
  52   24   48 1

#	End of record

