#	Name: ASD01120346
#	Creating user name:	WinNT
#	Creation time:	15. 06. 2019 18:59

#	Modifying user name:	WinNT
#	Modification time:	15. 06. 2019 18:59

#	Program:	/corina/corina34_cracker 3.40 0067  02.08.2006

@<TRIPOS>MOLECULE
ASD01120346
  37   39    0    0    0
SMALL
NO_CHARGES


@<TRIPOS>ATOM
   1 C1            -0.5391     1.4610     0.5587 C.3     
   2 O2             0.0091     0.1616     0.3280 O.3     
   3 C3             0.1646    -0.6437     1.4116 C.ar    
   4 C4            -0.2033    -0.1916     2.6710 C.ar    
   5 C5            -0.0464    -1.0095     3.7742 C.ar    
   6 C6             0.4774    -2.2789     3.6272 C.ar    
   7 C7             0.8477    -2.7372     2.3683 C.ar    
   8 C8             0.6854    -1.9191     1.2586 C.ar    
   9 N9             1.3779    -4.0209     2.2193 N.pl3   
  10 C10            2.1107    -4.6008     3.2615 C.ar    
  11 C11            2.1045    -5.9712     3.4258 C.ar    
  12 C12            2.8396    -6.5476     4.4705 C.ar    
  13 C13            3.0346    -7.8829     4.8979 C.2     
  14 C14            3.8557    -7.8556     5.9812 C.2     
  15 N15            4.1925    -6.5453     6.2610 N.pl3   
  16 C16            3.5774    -5.7241     5.3428 C.ar    
  17 C17            3.5704    -4.3441     5.1580 C.ar    
  18 C18            2.8486    -3.7910     4.1259 C.ar    
  19 N19            4.3434    -3.4719     6.0705 N.pl3   
  20 O20            4.3377    -2.2646     5.9093 O.2     
  21 O21            4.9853    -3.9614     6.9826 O.2     
  22 C22            4.3116    -9.0315     6.7343 C.2     
  23 O23            3.9527   -10.1439     6.4001 O.2     
  24 O24            5.1281    -8.8771     7.7962 O.3     
  25 H25            0.1068     2.0117     1.2426 H       
  26 H26           -0.6096     1.9987    -0.3869 H       
  27 H27           -1.5327     1.3637     0.9962 H       
  28 H28           -0.6126     0.8008     2.7894 H       
  29 H29           -0.3335    -0.6550     4.7531 H       
  30 H30            0.5997    -2.9157     4.4909 H       
  31 H31            0.9722    -2.2725     0.2792 H       
  32 H32            1.2383    -4.5105     1.3937 H       
  33 H33            1.5359    -6.5961     2.7530 H       
  34 H34            2.6074    -8.7653     4.4448 H       
  35 H35            4.7676    -6.2521     6.9850 H       
  36 H36            2.8475    -2.7199     3.9875 H       
  37 H37            5.4015    -9.6802     8.2603 H       
@<TRIPOS>BOND
   1    1    2 1
   2    1   25 1
   3    1   26 1
   4    1   27 1
   5    2    3 1
   6    3    4 ar
   7    3    8 ar
   8    4    5 ar
   9    4   28 1
  10    5    6 ar
  11    5   29 1
  12    6    7 ar
  13    6   30 1
  14    7    8 ar
  15    7    9 1
  16    8   31 1
  17    9   10 1
  18    9   32 1
  19   10   11 ar
  20   10   18 ar
  21   11   12 ar
  22   11   33 1
  23   12   13 1
  24   12   16 ar
  25   13   14 2
  26   13   34 1
  27   14   15 1
  28   14   22 1
  29   15   16 1
  30   15   35 1
  31   16   17 ar
  32   17   18 ar
  33   17   19 1
  34   18   36 1
  35   19   20 2
  36   19   21 2
  37   22   23 2
  38   22   24 1
  39   24   37 1

#	End of record

