#	Name: ASD01917037
#	Creating user name:	WinNT
#	Creation time:	15. 06. 2019 20:08

#	Modifying user name:	WinNT
#	Modification time:	15. 06. 2019 20:08

#	Program:	/corina/corina34_cracker 3.40 0067  02.08.2006

@<TRIPOS>MOLECULE
ASD01917037
  37   39    0    0    0
SMALL
NO_CHARGES


@<TRIPOS>ATOM
   1 C1            -0.0120     1.4223    -0.4278 C.ar    
   2 C2            -0.0207     0.0465    -0.2829 C.ar    
   3 C3             1.1617    -0.6402    -0.0726 C.ar    
   4 C4             2.3578     0.0443    -0.0057 C.ar    
   5 C5             2.3733     1.4316    -0.1510 C.ar    
   6 C6             1.1777     2.1182    -0.3633 C.ar    
   7 C7             3.6527     2.1719    -0.0798 C.2     
   8 N8             4.8529     1.6609    -0.2549 N.2     
   9 C9             5.7755     2.6195    -0.1192 C.2     
  10 N10            5.1725     3.7586     0.1453 N.2     
  11 N11            3.7936     3.4944     0.1710 N.pl3   
  12 C12            2.7202     4.4580     0.4270 C.3     
  13 C13            2.3027     5.1012    -0.8703 C.2     
  14 O14            1.3272     6.0233    -0.8787 O.3     
  15 O15            2.8460     4.7870    -1.9027 O.2     
  16 C16            0.9771     6.6007    -2.1642 C.3     
  17 C17            7.2420     2.4291    -0.2455 C.ar    
  18 C18            7.7613     1.1678    -0.5291 C.ar    
  19 C19            8.1039     3.5122    -0.0867 C.ar    
  20 C20            9.4668     3.3296    -0.2057 C.ar    
  21 C21            9.9773     2.0741    -0.4822 C.ar    
  22 C22            9.1259     0.9964    -0.6461 C.ar    
  23 H23           -0.9378     1.9523    -0.5962 H       
  24 H24           -0.9546    -0.4936    -0.3338 H       
  25 H25            1.1484    -1.7142     0.0398 H       
  26 H26            3.2802    -0.4928     0.1592 H       
  27 H27            1.1833     3.1922    -0.4769 H       
  28 H28            1.8670     3.9428     0.8682 H       
  29 H29            3.0768     5.2249     1.1146 H       
  30 H30            1.8503     7.0942    -2.5908 H       
  31 H31            0.6405     5.8121    -2.8371 H       
  32 H32            0.1776     7.3292    -2.0296 H       
  33 H33            7.0974     0.3256    -0.6569 H       
  34 H34            7.7063     4.4929     0.1288 H       
  35 H35           10.1358     4.1685    -0.0831 H       
  36 H36           11.0444     1.9356    -0.5745 H       
  37 H37            9.5298     0.0183    -0.8618 H       
@<TRIPOS>BOND
   1    1    2 ar
   2    1    6 ar
   3    1   23 1
   4    2    3 ar
   5    2   24 1
   6    3    4 ar
   7    3   25 1
   8    4    5 ar
   9    4   26 1
  10    5    6 ar
  11    5    7 1
  12    6   27 1
  13    7    8 2
  14    7   11 1
  15    8    9 1
  16    9   10 2
  17    9   17 1
  18   10   11 1
  19   11   12 1
  20   12   13 1
  21   12   28 1
  22   12   29 1
  23   13   14 1
  24   13   15 2
  25   14   16 1
  26   16   30 1
  27   16   31 1
  28   16   32 1
  29   17   18 ar
  30   17   19 ar
  31   18   22 ar
  32   18   33 1
  33   19   20 ar
  34   19   34 1
  35   20   21 ar
  36   20   35 1
  37   21   22 ar
  38   21   36 1
  39   22   37 1

#	End of record

