#	Name: ASD03331276
#	Creating user name:	WinNT
#	Creation time:	15. 06. 2019 20:38

#	Modifying user name:	WinNT
#	Modification time:	15. 06. 2019 20:38

#	Program:	/corina/corina34_cracker 3.40 0067  02.08.2006

@<TRIPOS>MOLECULE
ASD03331276
  51   54    0    0    0
SMALL
NO_CHARGES


@<TRIPOS>ATOM
   1 N1            -0.0455     1.4969     0.5749 N.am    
   2 C2             0.0033     0.1543     1.1734 C.3     
   3 C3             0.5952    -0.8157     0.1453 C.3     
   4 N4             1.8870    -0.2978    -0.3247 N.3     
   5 C5             1.7252     0.9856    -1.0209 C.3     
   6 C6             1.1796     2.0294    -0.0405 C.3     
   7 C7            -1.1842     2.2179     0.5853 C.2     
   8 O8            -2.2123     1.7245     1.0068 O.2     
   9 N9            -1.1831     3.4859     0.1284 N.am    
  10 C10           -2.3804     4.1935     0.0333 C.ar    
  11 C11           -2.3933     5.5681     0.2495 C.ar    
  12 C12           -3.5735     6.2701     0.1560 C.ar    
  13 C13           -4.7604     5.6004    -0.1565 C.ar    
  14 C14           -4.7436     4.2192    -0.3730 C.ar    
  15 C15           -3.5588     3.5245    -0.2831 C.ar    
  16 C16            2.5675    -1.2788    -1.1806 C.3     
  17 C17            3.7587    -0.6309    -1.8382 C.ar    
  18 C18            5.0027    -0.6617    -1.2126 C.ar    
  19 N19            6.0611    -0.1086    -1.7539 N.ar    
  20 C20            5.9931     0.5118    -2.9358 C.ar    
  21 C21            4.7576     0.5792    -3.6267 C.ar    
  22 C22            3.6205    -0.0177    -3.0512 C.ar    
  23 C23            7.1312     1.1036    -3.5114 C.ar    
  24 C24            7.0310     1.7287    -4.7159 C.ar    
  25 C25            5.8149     1.7941    -5.3933 C.ar    
  26 C26            4.6915     1.2326    -4.8680 C.ar    
  27 C27           -6.0267     6.3489    -0.2570 C.2     
  28 O28           -7.1697     5.7018    -0.5583 O.3     
  29 O29           -6.0397     7.5491    -0.0682 O.2     
  30 H30            0.6320     0.1728     2.0636 H       
  31 H31           -1.0044    -0.1647     1.4399 H       
  32 H32            0.7412    -1.7917     0.6081 H       
  33 H33           -0.0872    -0.9116    -0.6992 H       
  34 H34            2.6907     1.3160    -1.4038 H       
  35 H35            1.0270     0.8646    -1.8491 H       
  36 H36            0.9496     2.9502    -0.5766 H       
  37 H37            1.9213     2.2282     0.7330 H       
  38 H38           -0.3492     3.9060    -0.1343 H       
  39 H39           -1.4762     6.0847     0.4912 H       
  40 H40           -3.5828     7.3369     0.3242 H       
  41 H41           -5.6586     3.6987    -0.6146 H       
  42 H42           -3.5444     2.4583    -0.4546 H       
  43 H43            2.9008    -2.1209    -0.5740 H       
  44 H44            1.8777    -1.6331    -1.9465 H       
  45 H45            5.0980    -1.1539    -0.2560 H       
  46 H46            2.6636     0.0148    -3.5508 H       
  47 H47            8.0812     1.0626    -2.9993 H       
  48 H48            7.9081     2.1818    -5.1538 H       
  49 H49            5.7630     2.2970    -6.3477 H       
  50 H50            3.7549     1.2895    -5.4027 H       
  51 H51           -7.9746     6.2349    -0.6131 H       
@<TRIPOS>BOND
   1    1    2 1
   2    1    6 1
   3    1    7 am
   4    2    3 1
   5    2   30 1
   6    2   31 1
   7    3    4 1
   8    3   32 1
   9    3   33 1
  10    4    5 1
  11    4   16 1
  12    5    6 1
  13    5   34 1
  14    5   35 1
  15    6   36 1
  16    6   37 1
  17    7    8 2
  18    7    9 am
  19    9   10 1
  20    9   38 1
  21   10   11 ar
  22   10   15 ar
  23   11   12 ar
  24   11   39 1
  25   12   13 ar
  26   12   40 1
  27   13   14 ar
  28   13   27 1
  29   14   15 ar
  30   14   41 1
  31   15   42 1
  32   16   17 1
  33   16   43 1
  34   16   44 1
  35   17   18 ar
  36   17   22 ar
  37   18   19 ar
  38   18   45 1
  39   19   20 ar
  40   20   21 ar
  41   20   23 ar
  42   21   22 ar
  43   21   26 ar
  44   22   46 1
  45   23   24 ar
  46   23   47 1
  47   24   25 ar
  48   24   48 1
  49   25   26 ar
  50   25   49 1
  51   26   50 1
  52   27   28 1
  53   27   29 2
  54   28   51 1

#	End of record

