#	Name: ASD01901215
#	Creating user name:	WinNT
#	Creation time:	15. 06. 2019 19:53

#	Modifying user name:	WinNT
#	Modification time:	15. 06. 2019 19:53

#	Program:	/corina/corina34_cracker 3.40 0067  02.08.2006

@<TRIPOS>MOLECULE
ASD01901215
  26   28    0    0    0
SMALL
NO_CHARGES


@<TRIPOS>ATOM
   1 C1            -0.0173     1.4278     0.0099 C.2     
   2 C2             0.0021    -0.0041     0.0020 C.1     
   3 C3             0.0180    -1.1779    -0.0044 C.1     
   4 C4             0.0374    -2.6098    -0.0123 C.ar    
   5 C5            -1.2024    -3.3909    -0.0047 C.ar    
   6 C6            -1.1094    -4.8035    -0.0137 C.ar    
   7 N7             0.0915    -5.3919    -0.0283 N.ar    
   8 C8             1.2102    -4.7078    -0.0349 C.ar    
   9 C9             1.2388    -3.3218    -0.0335 C.ar    
  10 C10           -2.4570    -2.7752     0.0116 C.ar    
  11 C11           -3.5842    -3.5440     0.0186 C.ar    
  12 C12           -3.4989    -4.9333     0.0102 C.ar    
  13 C13           -2.2914    -5.5633    -0.0066 C.ar    
  14 C14            1.1069     2.1928     0.0033 C.2     
  15 S15            0.7120     3.8508     0.0160 S.3     
  16 C16           -1.0110     3.5174     0.0306 C.2     
  17 C17           -1.2329     2.2074     0.0195 C.2     
  18 H18            2.1466    -5.2456    -0.0467 H       
  19 H19            2.1825    -2.7968    -0.0441 H       
  20 H20           -2.5338    -1.6980     0.0190 H       
  21 H21           -4.5541    -3.0690     0.0312 H       
  22 H22           -4.4048    -5.5212     0.0166 H       
  23 H23           -2.2426    -6.6421    -0.0125 H       
  24 H24            2.1139     1.8026    -0.0081 H       
  25 H25           -1.7835     4.2721     0.0421 H       
  26 H26           -2.2206     1.7706     0.0214 H       
@<TRIPOS>BOND
   1    1    2 1
   2    1   14 2
   3    1   17 1
   4    2    3 3
   5    3    4 1
   6    4    5 ar
   7    4    9 ar
   8    5    6 ar
   9    5   10 ar
  10    6    7 ar
  11    6   13 ar
  12    7    8 ar
  13    8    9 ar
  14    8   18 1
  15    9   19 1
  16   10   11 ar
  17   10   20 1
  18   11   12 ar
  19   11   21 1
  20   12   13 ar
  21   12   22 1
  22   13   23 1
  23   14   15 1
  24   14   24 1
  25   15   16 1
  26   16   17 2
  27   16   25 1
  28   17   26 1

#	End of record

