#	Name: ASD01884034
#	Creating user name:	WinNT
#	Creation time:	15. 06. 2019 19:47

#	Modifying user name:	WinNT
#	Modification time:	15. 06. 2019 19:47

#	Program:	/corina/corina34_cracker 3.40 0067  02.08.2006

@<TRIPOS>MOLECULE
ASD01884034
  52   55    0    0    0
SMALL
NO_CHARGES


@<TRIPOS>ATOM
   1 Cl1            0.0000     0.0000     0.0000 Cl      
   2 H2             0.0000     1.3700     0.0000 H       
   3 C3             8.2927    16.1728     7.6137 C.3     
   4 C4             7.8523    14.7330     7.5497 C.2     
   5 N5             7.5690    14.0537     6.4460 N.2     
   6 C6             7.2176    12.8204     6.7598 C.2     
   7 C7             6.7882    11.5354     6.1859 C.2     
   8 O8             6.6367    11.3107     5.0000 O.2     
   9 N9             6.5890    10.6473     7.1773 N.am    
  10 C10            6.1571     9.2569     7.0149 C.3     
  11 C11            7.3843     8.3563     6.8611 C.3     
  12 C12            7.6301     7.3060     7.9462 C.3     
  13 C13            7.1409     6.8757     6.5619 C.3     
  14 C14            6.8813    11.3171     8.4495 C.3     
  15 N15            7.2738    12.6894     8.1220 N.pl3   
  16 C16            7.6791    13.8895     8.6295 C.2     
  17 C17            7.8887    14.2216    10.0532 C.ar    
  18 C18            9.1427    14.0356    10.6386 C.ar    
  19 C19            9.3345    14.3471    11.9672 C.ar    
  20 C20            8.2826    14.8456    12.7258 C.ar    
  21 O21            8.4772    15.1506    14.0350 O.3     
  22 C22            7.9978    14.2894    14.9679 C.ar    
  23 C23            8.0815    14.6185    16.3144 C.ar    
  24 C24            7.5892    13.7321    17.2568 C.ar    
  25 C25            7.0270    12.5405    16.8152 C.ar    
  26 F26            6.5343    11.6478    17.7015 F       
  27 C27            6.9772    12.2791    15.4579 C.ar    
  28 N28            7.4507    13.1477    14.5849 N.ar    
  29 C29            6.3693    10.9894    14.9701 C.3     
  30 F30            5.0000    11.1731    14.7502 F       
  31 F31            6.9863    10.6059    13.7745 F       
  32 F32            6.5573     9.9918    15.9327 F       
  33 C33            7.0331    15.0334    12.1496 C.ar    
  34 C34            6.8328    14.7292    10.8181 C.ar    
  35 F35            5.6186    14.9163    10.2562 F       
  36 H36            9.3800    16.2231     7.5546 H       
  37 H37            7.8576    16.7233     6.7795 H       
  38 H38            7.9592    16.6134     8.5532 H       
  39 H39            5.5876     8.9486     7.8916 H       
  40 H40            5.5308     9.1725     6.1267 H       
  41 H41            8.2573     8.8247     6.4067 H       
  42 H42            8.6651     7.0834     8.2059 H       
  43 H43            6.9176     7.2567     8.7696 H       
  44 H44            6.1065     6.5433     6.4745 H       
  45 H45            7.8540     6.3700     5.9108 H       
  46 H46            5.9925    11.3238     9.0804 H       
  47 H47            7.6981    10.8073     8.9605 H       
  48 H48            9.9614    13.6475    10.0507 H       
  49 H49           10.3044    14.2032    12.4198 H       
  50 H50            8.5254    15.5536    16.6224 H       
  51 H51            7.6411    13.9613    18.3109 H       
  52 H52            6.2182    15.4211    12.7429 H       
@<TRIPOS>BOND
   1    1    2 1
   2    3    4 1
   3    3   36 1
   4    3   37 1
   5    3   38 1
   6    4   16 2
   7    4    5 1
   8    5    6 2
   9    6   15 1
  10    6    7 1
  11    7    8 2
  12    7    9 am
  13    9   10 1
  14    9   14 1
  15   10   11 1
  16   10   39 1
  17   10   40 1
  18   11   13 1
  19   11   12 1
  20   11   41 1
  21   12   13 1
  22   12   42 1
  23   12   43 1
  24   13   44 1
  25   13   45 1
  26   14   15 1
  27   14   46 1
  28   14   47 1
  29   15   16 1
  30   16   17 1
  31   17   34 ar
  32   17   18 ar
  33   18   19 ar
  34   18   48 1
  35   19   20 ar
  36   19   49 1
  37   20   21 1
  38   20   33 ar
  39   21   22 1
  40   22   28 ar
  41   22   23 ar
  42   23   24 ar
  43   23   50 1
  44   24   25 ar
  45   24   51 1
  46   25   26 1
  47   25   27 ar
  48   27   28 ar
  49   27   29 1
  50   29   30 1
  51   29   31 1
  52   29   32 1
  53   33   34 ar
  54   33   52 1
  55   34   35 1

#	End of record

