#	Name: ASD01478100
#	Creating user name:	WinNT
#	Creation time:	15. 06. 2019 19:21

#	Modifying user name:	WinNT
#	Modification time:	15. 06. 2019 19:21

#	Program:	/corina/corina34_cracker 3.40 0067  02.08.2006

@<TRIPOS>MOLECULE
ASD01478100
  19   20    0    0    0
SMALL
NO_CHARGES


@<TRIPOS>ATOM
   1 C1            -0.0190     1.5485     0.0106 C.3     
   2 C2             0.0021    -0.0041     0.0020 C.3     
   3 C3             1.3725    -0.4225    -0.5516 C.3     
   4 C4             2.1213     0.8769    -0.9108 C.3     
   5 C5             1.4754     1.9500    -0.0016 C.3     
   6 C6            -0.9269     0.6806     1.9552 C.3     
   7 O7            -0.5778     1.9044     1.2871 O.3     
   8 O8            -0.0617    -0.3367     1.4079 O.3     
   9 O9             3.5145     0.7480    -0.6205 O.3     
  10 H10           -0.5722     1.9671    -0.8301 H       
  11 H11           -0.8223    -0.4286    -0.5709 H       
  12 H12            1.9277    -0.9757     0.2059 H       
  13 H13            1.2431    -1.0369    -1.4426 H       
  14 H14            1.9709     1.1261    -1.9612 H       
  15 H15            1.6034     2.9444    -0.4291 H       
  16 H16            1.8941     1.9053     1.0038 H       
  17 H17           -0.7591     0.7781     3.0278 H       
  18 H18           -1.9697     0.4309     1.7595 H       
  19 H19            4.0340     1.5370    -0.8273 H       
@<TRIPOS>BOND
   1    1    2 1
   2    1    5 1
   3    1    7 1
   4    1   10 1
   5    2    3 1
   6    2    8 1
   7    2   11 1
   8    3    4 1
   9    3   12 1
  10    3   13 1
  11    4    5 1
  12    4    9 1
  13    4   14 1
  14    5   15 1
  15    5   16 1
  16    6    7 1
  17    6    8 1
  18    6   17 1
  19    6   18 1
  20    9   19 1

#	End of record

