#	Name: ASD01917141
#	Creating user name:	WinNT
#	Creation time:	15. 06. 2019 20:08

#	Modifying user name:	WinNT
#	Modification time:	15. 06. 2019 20:08

#	Program:	/corina/corina34_cracker 3.40 0067  02.08.2006

@<TRIPOS>MOLECULE
ASD01917141
  79   84    0    0    0
SMALL
NO_CHARGES


@<TRIPOS>ATOM
   1 C1            -1.0730     2.1090    -3.0499 C.2     
   2 N2            -1.0632     0.8002    -3.1832 N.2     
   3 N3            -2.3475     0.3453    -2.8431 N.pl3   
   4 C4            -3.0686     1.4433    -2.5173 C.2     
   5 N5            -2.2869     2.4951    -2.6416 N.2     
   6 C6             0.0780     3.0103    -3.3051 C.ar    
   7 C7            -0.0586     4.3856    -3.1272 C.ar    
   8 C8             1.3001     2.4833    -3.7178 C.ar    
   9 C9             2.3678     3.3248    -3.9534 C.ar    
  10 C10            2.2261     4.6921    -3.7804 C.ar    
  11 C11           -2.8144    -1.0433    -2.8413 C.3     
  12 C12           -2.5243    -1.6691    -1.5014 C.2     
  13 N13           -2.8686    -2.9510    -1.2677 N.am    
  14 O14           -1.9810    -1.0192    -0.6335 O.2     
  15 C15           -2.5946    -3.5811     0.0328 C.3     
  16 C16           -3.8879    -4.2251     0.5437 C.3     
  17 N17           -4.4204    -5.1290    -0.4846 N.3     
  18 C18           -4.7846    -4.3940    -1.7032 C.3     
  19 C19           -3.5337    -3.7551    -2.3042 C.3     
  20 C20           -5.4988    -5.8523     0.0002 C.ar    
  21 N21           -5.9215    -5.6787     1.2505 N.ar    
  22 C22           -6.9462    -6.3625     1.7180 C.ar    
  23 N23           -7.5927    -7.2404     0.9784 N.ar    
  24 C24           -7.2315    -7.4711    -0.2810 C.ar    
  25 C25           -6.1600    -6.7676    -0.8153 C.ar    
  26 C26           -4.4852     1.4582    -2.0907 C.ar    
  27 C27            1.0142     5.2199    -3.3651 C.ar    
  28 C28           -5.0756     0.3005    -1.5831 C.ar    
  29 C29           -6.3964     0.3196    -1.1868 C.ar    
  30 C30           -7.1372     1.4861    -1.2926 C.ar    
  31 C31           -6.5555     2.6387    -1.7962 C.ar    
  32 C32           -5.2336     2.6316    -2.1894 C.ar    
  33 F33            3.2742     5.5125    -4.0118 F       
  34 F34           -8.4311     1.4995    -0.9039 F       
  35 C35           -9.6269   -10.0284    -1.4084 C.3     
  36 N36           -8.6340   -11.0373    -1.8010 N.3     
  37 C37           -9.2295   -12.0440    -2.6907 C.3     
  38 C38           -8.1470   -13.0286    -3.1394 C.3     
  39 N39           -7.5461   -13.6636    -1.9581 N.3     
  40 C40           -6.9505   -12.6569    -1.0684 C.3     
  41 C41           -8.0330   -11.6723    -0.6197 C.3     
  42 C42           -6.5531   -14.6725    -2.3507 C.3     
  43 O43           -7.9032    -8.3764    -1.0337 O.3     
  44 C44           -8.9968    -9.0537    -0.4114 C.3     
  45 H45           -1.0030     4.7978    -2.8039 H       
  46 H46            1.4115     1.4175    -3.8526 H       
  47 H47            3.3155     2.9171    -4.2730 H       
  48 H48           -3.8881    -1.0658    -3.0280 H       
  49 H49           -2.2980    -1.6013    -3.6224 H       
  50 H50           -1.8267    -4.3456    -0.0852 H       
  51 H51           -2.2570    -2.8253     0.7420 H       
  52 H52           -3.6785    -4.7904     1.4518 H       
  53 H53           -4.6207    -3.4477     0.7595 H       
  54 H54           -5.2257    -5.0819    -2.4247 H       
  55 H55           -5.5050    -3.6142    -1.4561 H       
  56 H56           -3.8149    -3.1161    -3.1412 H       
  57 H57           -2.8532    -4.5344    -2.6473 H       
  58 H58           -7.2650    -6.1988     2.7368 H       
  59 H59           -5.8424    -6.9318    -1.8345 H       
  60 H60            0.9079     6.2864    -3.2317 H       
  61 H61           -4.4993    -0.6092    -1.5009 H       
  62 H62           -6.8543    -0.5761    -0.7937 H       
  63 H63           -7.1371     3.5451    -1.8770 H       
  64 H64           -4.7811     3.5304    -2.5817 H       
  65 H65           -9.9579    -9.4816    -2.2913 H       
  66 H66          -10.4815   -10.5209    -0.9445 H       
  67 H67          -10.0128   -12.5827    -2.1575 H       
  68 H68           -9.6566   -11.5505    -3.5637 H       
  69 H69           -8.5922   -13.7931    -3.7762 H       
  70 H70           -7.3773   -12.4941    -3.6961 H       
  71 H71           -6.5234   -13.1504    -0.1954 H       
  72 H72           -6.1672   -12.1182    -1.6016 H       
  73 H73           -7.5878   -10.9078     0.0171 H       
  74 H74           -8.8027   -12.2068    -0.0630 H       
  75 H75           -5.7630   -14.1976    -2.9323 H       
  76 H76           -6.1240   -15.1267    -1.4576 H       
  77 H77           -7.0357   -15.4418    -2.9535 H       
  78 H78           -9.7429    -8.3248    -0.0949 H       
  79 H79           -8.6361    -9.6049     0.4570 H       
@<TRIPOS>BOND
   1    1    2 2
   2    1    6 1
   3    1    5 1
   4    2    3 1
   5    3    4 1
   6    3   11 1
   7    4    5 2
   8    4   26 1
   9    6    7 ar
  10    6    8 ar
  11    7   27 ar
  12    7   45 1
  13    8    9 ar
  14    8   46 1
  15    9   10 ar
  16    9   47 1
  17   10   27 ar
  18   10   33 1
  19   11   12 1
  20   11   48 1
  21   11   49 1
  22   12   13 am
  23   12   14 2
  24   13   15 1
  25   13   19 1
  26   15   16 1
  27   15   50 1
  28   15   51 1
  29   16   17 1
  30   16   52 1
  31   16   53 1
  32   17   18 1
  33   17   20 1
  34   18   19 1
  35   18   54 1
  36   18   55 1
  37   19   56 1
  38   19   57 1
  39   20   21 ar
  40   20   25 ar
  41   21   22 ar
  42   22   23 ar
  43   22   58 1
  44   23   24 ar
  45   24   25 ar
  46   24   43 1
  47   25   59 1
  48   26   28 ar
  49   26   32 ar
  50   27   60 1
  51   28   29 ar
  52   28   61 1
  53   29   30 ar
  54   29   62 1
  55   30   31 ar
  56   30   34 1
  57   31   32 ar
  58   31   63 1
  59   32   64 1
  60   35   36 1
  61   35   44 1
  62   35   65 1
  63   35   66 1
  64   36   37 1
  65   36   41 1
  66   37   38 1
  67   37   67 1
  68   37   68 1
  69   38   39 1
  70   38   69 1
  71   38   70 1
  72   39   40 1
  73   39   42 1
  74   40   41 1
  75   40   71 1
  76   40   72 1
  77   41   73 1
  78   41   74 1
  79   42   75 1
  80   42   76 1
  81   42   77 1
  82   43   44 1
  83   44   78 1
  84   44   79 1

#	End of record

