#	Name: ASD01911925
#	Creating user name:	WinNT
#	Creation time:	15. 06. 2019 19:58

#	Modifying user name:	WinNT
#	Modification time:	15. 06. 2019 19:58

#	Program:	/corina/corina34_cracker 3.40 0067  02.08.2006

@<TRIPOS>MOLECULE
ASD01911925
  35   37    0    0    0
SMALL
NO_CHARGES


@<TRIPOS>ATOM
   1 C1             0.4114     0.1148    -1.8759 C.ar    
   2 C2            -0.0797     0.0132    -0.5783 C.ar    
   3 C3             0.6067     0.6678     0.4395 C.ar    
   4 N4             1.6942     1.3585     0.1392 N.ar    
   5 C5             2.1281     1.4308    -1.1031 C.ar    
   6 N6             1.5058     0.8250    -2.0944 N.ar    
   7 O7            -1.2013    -0.7064    -0.3118 O.3     
   8 C8            -1.0957    -2.0610    -0.2708 C.ar    
   9 C9            -2.2179    -2.8380    -0.0117 C.ar    
  10 C10           -2.1106    -4.2185     0.0296 C.ar    
  11 C11           -0.8857    -4.8254    -0.1866 C.ar    
  12 C12            0.2374    -4.0512    -0.4458 C.ar    
  13 C13            0.1303    -2.6678    -0.4931 C.ar    
  14 N14            1.4758    -4.6653    -0.6638 N.am    
  15 C15            1.5337    -5.8719    -1.2615 C.2     
  16 C16            2.8308    -6.5674    -1.3983 C.ar    
  17 O17            0.5191    -6.3883    -1.6879 O.2     
  18 C18            2.8941    -7.8171    -2.0167 C.ar    
  19 F19           -3.2026    -4.9730     0.2816 F       
  20 C20            4.1079    -8.4613    -2.1420 C.ar    
  21 C21            5.2609    -7.8718    -1.6560 C.ar    
  22 C22            5.2058    -6.6320    -1.0413 C.ar    
  23 C23            3.9984    -5.9745    -0.9148 C.ar    
  24 Cl24           6.6585    -5.9003    -0.4345 Cl      
  25 F25           -3.4141    -2.2471     0.2004 F       
  26 H26           -0.0909    -0.3827    -2.6924 H       
  27 H27            0.2567     0.6131     1.4597 H       
  28 H28            3.0191     2.0033    -1.3150 H       
  29 H29           -0.8033    -5.9017    -0.1534 H       
  30 H30            1.0032    -2.0647    -0.6946 H       
  31 H31            2.2925    -4.2225    -0.3849 H       
  32 H32            1.9947    -8.2791    -2.3961 H       
  33 H33            4.1577    -9.4283    -2.6204 H       
  34 H34            6.2083    -8.3807    -1.7561 H       
  35 H35            3.9561    -5.0077    -0.4353 H       
@<TRIPOS>BOND
   1    1    2 ar
   2    1    6 ar
   3    1   26 1
   4    2    3 ar
   5    2    7 1
   6    3    4 ar
   7    3   27 1
   8    4    5 ar
   9    5    6 ar
  10    5   28 1
  11    7    8 1
  12    8    9 ar
  13    8   13 ar
  14    9   10 ar
  15    9   25 1
  16   10   11 ar
  17   10   19 1
  18   11   12 ar
  19   11   29 1
  20   12   13 ar
  21   12   14 1
  22   13   30 1
  23   14   15 am
  24   14   31 1
  25   15   16 1
  26   15   17 2
  27   16   18 ar
  28   16   23 ar
  29   18   20 ar
  30   18   32 1
  31   20   21 ar
  32   20   33 1
  33   21   22 ar
  34   21   34 1
  35   22   23 ar
  36   22   24 1
  37   23   35 1

#	End of record

