#	Name: ASD01903201
#	Creating user name:	WinNT
#	Creation time:	15. 06. 2019 19:54

#	Modifying user name:	WinNT
#	Modification time:	15. 06. 2019 19:54

#	Program:	/corina/corina34_cracker 3.40 0067  02.08.2006

@<TRIPOS>MOLECULE
ASD01903201
  27   29    0    0    0
SMALL
NO_CHARGES


@<TRIPOS>ATOM
   1 S1            -0.0233     1.7574    -0.0161 S.3     
   2 C2             0.0016    -0.0035    -0.0056 C.2     
   3 N3             1.2324    -0.4160    -0.0128 N.2     
   4 C4             2.1774     0.5136    -0.0260 C.2     
   5 C5             1.7386     1.7826    -0.0303 C.2     
   6 N6            -1.1178    -0.8210     0.0087 N.pl3   
   7 C7            -2.3944    -0.2582     0.1296 C.2     
   8 C8             3.6237     0.1743    -0.0350 C.2     
   9 C9             4.6926     1.0868     0.0510 C.2     
  10 N10            5.8098     0.4095     0.0118 N.2     
  11 N11            5.5008    -0.9516    -0.0998 N.pl3   
  12 C12            4.1569    -1.0778    -0.1220 C.2     
  13 C13           -3.6127    -0.9524     0.0521 C.2     
  14 C14           -4.6119    -0.0565     0.2189 C.2     
  15 N15           -4.0529     1.1593     0.3954 N.pl3   
  16 N16           -2.6613     1.0093     0.3407 N.2     
  17 C17           -4.7753     2.4154     0.6112 C.3     
  18 H18            2.3588     2.6667    -0.0409 H       
  19 H19           -1.0168    -1.7829    -0.0650 H       
  20 H20            4.6047     2.1600     0.1342 H       
  21 H21            6.1414    -1.6783    -0.1495 H       
  22 H22            3.6043    -2.0023    -0.2009 H       
  23 H23           -3.7308    -2.0133    -0.1118 H       
  24 H24           -5.6696    -0.2750     0.2117 H       
  25 H25           -4.9284     2.5676     1.6796 H       
  26 H26           -4.1935     3.2433     0.2060 H       
  27 H27           -5.7414     2.3699     0.1086 H       
@<TRIPOS>BOND
   1    1    2 1
   2    1    5 1
   3    2    3 2
   4    2    6 1
   5    3    4 1
   6    4    5 2
   7    4    8 1
   8    5   18 1
   9    6    7 1
  10    6   19 1
  11    7   13 1
  12    7   16 2
  13    8    9 1
  14    8   12 2
  15    9   10 2
  16    9   20 1
  17   10   11 1
  18   11   12 1
  19   11   21 1
  20   12   22 1
  21   13   14 2
  22   13   23 1
  23   14   15 1
  24   14   24 1
  25   15   16 1
  26   15   17 1
  27   17   25 1
  28   17   26 1
  29   17   27 1

#	End of record

