#	Name: ASD01811159
#	Creating user name:	WinNT
#	Creation time:	15. 06. 2019 19:26

#	Modifying user name:	WinNT
#	Modification time:	15. 06. 2019 19:26

#	Program:	/corina/corina34_cracker 3.40 0067  02.08.2006

@<TRIPOS>MOLECULE
ASD01811159
  37   38    0    0    0
SMALL
NO_CHARGES


@<TRIPOS>ATOM
   1 C1            -0.2870     1.4547     0.0828 C.2     
   2 C2            -0.1280    -0.0134     0.0372 C.ar    
   3 C3             1.1497    -0.5789     0.0050 C.ar    
   4 C4             1.3001    -1.9505    -0.0377 C.ar    
   5 C5             0.1909    -2.7732    -0.0484 C.ar    
   6 C6            -1.0923    -2.2215    -0.0166 C.ar    
   7 C7            -1.2514    -0.8376     0.0319 C.ar    
   8 O8             0.6934     2.1718     0.0924 O.2     
   9 O9            -1.5193     1.9982     0.1082 O.3     
  10 C10           -2.2778    -3.1031    -0.0287 C.2     
  11 O11           -2.2510    -4.1485    -0.6466 O.2     
  12 O12           -3.3885    -2.7475     0.6456 O.3     
  13 C13           -4.5148    -3.6621     0.5894 C.3     
  14 C14            2.3661     0.3107     0.0164 C.3     
  15 C15            2.6126     0.8556    -1.3918 C.3     
  16 C16            0.3651    -4.2694    -0.0951 C.3     
  17 C17            0.9932    -4.7759    -1.4042 C.3     
  18 C18            1.7995    -5.7628    -0.5435 C.3     
  19 C19            1.6366    -4.7640     0.6144 C.3     
  20 H20            2.2897    -2.3822    -0.0631 H       
  21 H21           -2.2410    -0.4061     0.0611 H       
  22 H22           -1.5729     2.9633     0.1378 H       
  23 H23           -5.3415    -3.2568     1.1729 H       
  24 H24           -4.8290    -3.7884    -0.4466 H       
  25 H25           -4.2196    -4.6278     0.9999 H       
  26 H26            2.2027     1.1408     0.7037 H       
  27 H27            3.2336    -0.2641     0.3406 H       
  28 H28            3.4924     1.4991    -1.3836 H       
  29 H29            2.7760     0.0256    -2.0791 H       
  30 H30            1.7451     1.4304    -1.7160 H       
  31 H31           -0.5363    -4.8096     0.1944 H       
  32 H32            0.2804    -5.2601    -2.0717 H       
  33 H33            1.6097    -4.0322    -1.9091 H       
  34 H34            1.2911    -6.7123    -0.3758 H       
  35 H35            2.8315    -5.8863    -0.8717 H       
  36 H36            2.4290    -4.0170     0.6614 H       
  37 H37            1.4433    -5.2385     1.5765 H       
@<TRIPOS>BOND
   1    1    2 1
   2    1    8 2
   3    1    9 1
   4    2    3 ar
   5    2    7 ar
   6    3    4 ar
   7    3   14 1
   8    4    5 ar
   9    4   20 1
  10    5    6 ar
  11    5   16 1
  12    6    7 ar
  13    6   10 1
  14    7   21 1
  15    9   22 1
  16   10   11 2
  17   10   12 1
  18   12   13 1
  19   13   23 1
  20   13   24 1
  21   13   25 1
  22   14   15 1
  23   14   26 1
  24   14   27 1
  25   15   28 1
  26   15   29 1
  27   15   30 1
  28   16   17 1
  29   16   19 1
  30   16   31 1
  31   17   18 1
  32   17   32 1
  33   17   33 1
  34   18   19 1
  35   18   34 1
  36   18   35 1
  37   19   36 1
  38   19   37 1

#	End of record

