#	Name: ASD00990075
#	Creating user name:	WinNT
#	Creation time:	15. 06. 2019 18:54

#	Modifying user name:	WinNT
#	Modification time:	15. 06. 2019 18:54

#	Program:	/corina/corina34_cracker 3.40 0067  02.08.2006

@<TRIPOS>MOLECULE
ASD00990075
  52   55    0    0    0
SMALL
NO_CHARGES


@<TRIPOS>ATOM
   1 O1             0.0021    -0.0041     0.0020 O.2     
   2 C2            -0.0144     1.2123     0.0087 C.2     
   3 N3             1.1435     1.9020     0.0014 N.am    
   4 C4             2.4220     1.1868    -0.0147 C.3     
   5 C5             3.5712     2.1968    -0.0202 C.3     
   6 C6             4.9065     1.4499    -0.0370 C.3     
   7 C7             6.0557     2.4599    -0.0426 C.3     
   8 N8             7.3377     1.7428    -0.0586 N.3     
   9 C9             7.4211     0.8376    -1.2158 C.3     
  10 C10            8.8777     0.4079    -1.3920 C.3     
  11 C11            9.4288    -0.0933    -0.0811 C.ar    
  12 C12           10.5910    -0.8519    -0.1021 C.ar    
  13 C13           11.1369    -1.3297     1.0690 C.ar    
  14 C14           10.5152    -1.0475     2.2868 C.ar    
  15 C15            9.3469    -0.2865     2.3024 C.ar    
  16 C16            8.8064     0.1862     1.1190 C.ar    
  17 C17            7.5369     0.9945     1.1864 C.3     
  18 C18           11.0733    -1.5366     3.5115 C.1     
  19 N19           11.5161    -1.9246     4.4831 N.1     
  20 C20           -1.2978     1.9302     0.0187 C.2     
  21 C21           -2.5256     1.3484     0.0273 C.2     
  22 C22           -3.4927     2.3826     0.0361 C.ar    
  23 C23           -4.8933     2.3899     0.0464 C.ar    
  24 C24           -5.5659     3.5774     0.0527 C.ar    
  25 C25           -4.8745     4.7820     0.0485 C.ar    
  26 C26           -3.4975     4.8011     0.0380 C.ar    
  27 C27           -2.7890     3.6031     0.0323 C.ar    
  28 N28           -1.4471     3.3036     0.0269 N.pl3   
  29 H29           -0.7241     3.9502     0.0268 H       
  30 H30            1.1303     2.8719     0.0067 H       
  31 H31            2.4967     0.5562     0.8712 H       
  32 H32            2.4797     0.5658    -0.9086 H       
  33 H33            3.4965     2.8274    -0.9062 H       
  34 H34            3.5135     2.8178     0.8737 H       
  35 H35            4.9812     0.8193     0.8489 H       
  36 H36            4.9642     0.8289    -0.9309 H       
  37 H37            5.9810     3.0904    -0.9285 H       
  38 H38            5.9980     3.0809     0.8514 H       
  39 H39            6.7992    -0.0401    -1.0398 H       
  40 H40            7.0815     1.3567    -2.1121 H       
  41 H41            8.9330    -0.3873    -2.1354 H       
  42 H42            9.4677     1.2595    -1.7307 H       
  43 H43           11.0712    -1.0697    -1.0447 H       
  44 H44           12.0410    -1.9199     1.0451 H       
  45 H45            8.8616    -0.0652     3.2415 H       
  46 H46            7.5996     1.6938     2.0202 H       
  47 H47            6.6915     0.3244     1.3425 H       
  48 H48           -2.7276     0.2875     0.0271 H       
  49 H49           -5.4395     1.4583     0.0489 H       
  50 H50           -6.6458     3.5805     0.0606 H       
  51 H51           -5.4221     5.7129     0.0532 H       
  52 H52           -2.9690     5.7429     0.0341 H       
@<TRIPOS>BOND
   1    1    2 2
   2    2    3 am
   3    2   20 1
   4    3    4 1
   5    3   30 1
   6    4    5 1
   7    4   31 1
   8    4   32 1
   9    5    6 1
  10    5   33 1
  11    5   34 1
  12    6    7 1
  13    6   35 1
  14    6   36 1
  15    7    8 1
  16    7   37 1
  17    7   38 1
  18    8   17 1
  19    8    9 1
  20    9   10 1
  21    9   39 1
  22    9   40 1
  23   10   11 1
  24   10   41 1
  25   10   42 1
  26   11   16 ar
  27   11   12 ar
  28   12   13 ar
  29   12   43 1
  30   13   14 ar
  31   13   44 1
  32   14   15 ar
  33   14   18 1
  34   15   16 ar
  35   15   45 1
  36   16   17 1
  37   17   46 1
  38   17   47 1
  39   18   19 3
  40   20   28 1
  41   20   21 2
  42   21   22 1
  43   21   48 1
  44   22   27 ar
  45   22   23 ar
  46   23   24 ar
  47   23   49 1
  48   24   25 ar
  49   24   50 1
  50   25   26 ar
  51   25   51 1
  52   26   27 ar
  53   26   52 1
  54   27   28 1
  55   28   29 1

#	End of record

