#	Name: ASD01148008
#	Creating user name:	WinNT
#	Creation time:	15. 06. 2019 19:01

#	Modifying user name:	WinNT
#	Modification time:	15. 06. 2019 19:01

#	Program:	/corina/corina34_cracker 3.40 0067  02.08.2006

@<TRIPOS>MOLECULE
ASD01148008
  78   81    0    0    0
SMALL
NO_CHARGES


@<TRIPOS>ATOM
   1 C1            -0.1008     1.8097     0.0708 C.3     
   2 C2            -0.3704     0.3044     0.2042 C.3     
   3 C3             0.8938    -0.5248     0.3309 C.3     
   4 C4             1.8717    -0.2538    -0.8110 C.3     
   5 C5             2.0367     1.2067    -1.0705 C.3     
   6 C6             1.3757     2.1014     0.0002 C.3     
   7 C7             3.4512     1.8017    -1.1211 C.3     
   8 C8             3.1185     3.3222    -1.2195 C.3     
   9 C9             1.7345     3.5021    -0.5455 C.3     
  10 C10            0.5861    -2.0280     0.3802 C.3     
  11 C11            1.4281    -2.7530    -0.6670 C.3     
  12 C12            2.9162    -2.4837    -0.4613 C.3     
  13 C13            3.1883    -0.9751    -0.5267 C.3     
  14 C14           -0.8948    -2.2741     0.0957 C.3     
  15 C15           -1.1969    -3.7734     0.1174 C.3     
  16 C16           -0.3337    -4.5009    -0.9134 C.3     
  17 C17            1.1488    -4.2562    -0.6209 C.3     
  18 C18            0.9258    -2.5278     1.7876 C.3     
  19 C19           -0.6218    -6.0029    -0.8483 C.3     
  20 C20            2.0354     1.9983     1.3732 C.3     
  21 C21            1.8262     4.4823     0.5955 C.2     
  22 N22            0.9055     5.3176     0.9819 N.2     
  23 C23            2.9268     4.6727     1.4622 C.2     
  24 C24            2.5157     5.6514     2.3034 C.2     
  25 O25            1.2706     5.9763     1.9279 O.3     
  26 Si26           3.4894     6.3972     3.7123 Si      
  27 C27            4.4646     7.8571     3.0889 C.3     
  28 C28            2.3183     6.9576     5.0484 C.3     
  29 C29            4.6565     5.1208     4.4047 C.3     
  30 H30           -0.5945     2.1893    -0.8340 H       
  31 H31           -0.5388     2.3346     0.9309 H       
  32 H32           -1.0032     0.1360     1.0859 H       
  33 H33           -0.9379    -0.0276    -0.6751 H       
  34 H34            1.3792    -0.3156     1.2890 H       
  35 H35            1.4468    -0.7014    -1.7314 H       
  36 H36            1.5556     1.4371    -2.0497 H       
  37 H37            4.0320     1.5765    -0.2390 H       
  38 H38            3.9702     1.4748    -2.0239 H       
  39 H39            3.8726     3.9007    -0.6903 H       
  40 H40            3.0689     3.6213    -2.2646 H       
  41 H41            0.9900     3.8123    -1.2707 H       
  42 H42            1.1388    -2.3965    -1.6648 H       
  43 H43            3.2515    -2.8782     0.4942 H       
  44 H44            3.4813    -2.9769    -1.2597 H       
  45 H45            3.9001    -0.7682    -1.3249 H       
  46 H46            3.5945    -0.6373     0.4259 H       
  47 H47           -1.5001    -1.7755     0.8542 H       
  48 H48           -1.1475    -1.8749    -0.8886 H       
  49 H49           -1.0237    -4.1872     1.1068 H       
  50 H50           -2.2520    -3.9229    -0.1392 H       
  51 H51           -0.5713    -4.1315    -1.9116 H       
  52 H52            1.7471    -4.7507    -1.3934 H       
  53 H53            1.4140    -4.6725     0.3448 H       
  54 H54            0.3199    -1.9931     2.5191 H       
  55 H55            0.7173    -3.5956     1.8541 H       
  56 H56            1.9818    -2.3505     1.9911 H       
  57 H57           -1.6752    -6.1805    -1.0651 H       
  58 H58           -0.0070    -6.5229    -1.5828 H       
  59 H59           -0.3885    -6.3746     0.1494 H       
  60 H60            3.0405     2.4173     1.3258 H       
  61 H61            1.4448     2.5526     2.1027 H       
  62 H62            2.0919     0.9514     1.6715 H       
  63 H63            3.8756     4.1568     1.4553 H       
  64 H64            3.7817     8.6039     2.6838 H       
  65 H65            5.0328     8.2923     3.9111 H       
  66 H66            5.1498     7.5293     2.3072 H       
  67 H67            1.7477     6.1034     5.4131 H       
  68 H68            2.8864     7.3928     5.8705 H       
  69 H69            1.6354     7.7044     4.6433 H       
  70 H70            5.3417     4.7930     3.6230 H       
  71 H71            5.2247     5.5560     5.2268 H       
  72 H72            4.0859     4.2667     4.7694 H       
  73 C73           10.8689    15.4159    11.7536 C.3     
  74 O74           10.8883    13.9871    11.7458 O.3     
  75 H75           11.8915    15.7932    11.7459 H       
  76 H76           10.3417    15.7770    10.8705 H       
  77 H77           10.3587    15.7674    12.6504 H       
  78 H78           11.3279    13.6039    10.9744 H       
@<TRIPOS>BOND
   1    1    2 1
   2    1    6 1
   3    1   30 1
   4    1   31 1
   5    2    3 1
   6    2   32 1
   7    2   33 1
   8    3    4 1
   9    3   10 1
  10    3   34 1
  11    4    5 1
  12    4   13 1
  13    4   35 1
  14    5    6 1
  15    5    7 1
  16    5   36 1
  17    6   20 1
  18    6    9 1
  19    7    8 1
  20    7   37 1
  21    7   38 1
  22    8    9 1
  23    8   39 1
  24    8   40 1
  25    9   21 1
  26    9   41 1
  27   10   14 1
  28   10   18 1
  29   10   11 1
  30   11   12 1
  31   11   17 1
  32   11   42 1
  33   12   13 1
  34   12   43 1
  35   12   44 1
  36   13   45 1
  37   13   46 1
  38   14   15 1
  39   14   47 1
  40   14   48 1
  41   15   16 1
  42   15   49 1
  43   15   50 1
  44   16   17 1
  45   16   19 1
  46   16   51 1
  47   17   52 1
  48   17   53 1
  49   18   54 1
  50   18   55 1
  51   18   56 1
  52   19   57 1
  53   19   58 1
  54   19   59 1
  55   20   60 1
  56   20   61 1
  57   20   62 1
  58   21   22 2
  59   21   23 1
  60   22   25 1
  61   23   24 2
  62   23   63 1
  63   24   25 1
  64   24   26 1
  65   26   27 1
  66   26   28 1
  67   26   29 1
  68   27   64 1
  69   27   65 1
  70   27   66 1
  71   28   67 1
  72   28   68 1
  73   28   69 1
  74   29   70 1
  75   29   71 1
  76   29   72 1
  77   73   74 1
  78   73   75 1
  79   73   76 1
  80   73   77 1
  81   74   78 1

#	End of record

