#	Name: ASD04550075
#	Creating user name:	WinNT
#	Creation time:	15. 06. 2019 20:49

#	Modifying user name:	WinNT
#	Modification time:	15. 06. 2019 20:49

#	Program:	/corina/corina34_cracker 3.40 0067  02.08.2006

@<TRIPOS>MOLECULE
ASD04550075
  38   39    0    0    0
SMALL
NO_CHARGES


@<TRIPOS>ATOM
   1 C1            -0.0151     1.3734     0.0209 C.ar    
   2 C2             0.0074    -0.0136     0.0097 C.ar    
   3 C3             1.2212    -0.6852    -0.0115 C.ar    
   4 C4             2.4040     0.0285    -0.0215 C.ar    
   5 C5             2.3788     1.4109    -0.0099 C.ar    
   6 C6             1.1704     2.0825     0.0109 C.ar    
   7 C7             3.6707     2.1868    -0.0198 C.3     
   8 C8             3.7208     3.0780    -1.2625 C.3     
   9 O9            -1.1575    -0.7134     0.0200 O.3     
  10 S10           -1.7070    -1.0213    -1.3655 S.o2    
  11 O11           -3.0205    -1.5055    -1.1219 O.2     
  12 O12           -1.4920     0.1751    -2.1015 O.2     
  13 C13            3.7511     3.0444     1.2168 C.2     
  14 O14            2.8483     3.0271     2.0265 O.2     
  15 N15            4.8262     3.8305     1.4230 N.am    
  16 C16            4.8533     4.7035     2.5096 C.ar    
  17 C17            6.0059     5.4321     2.7789 C.ar    
  18 C18            6.0193     6.2953     3.8607 C.ar    
  19 C19            4.8746     6.3999     4.6386 C.ar    
  20 C20            3.7645     5.6454     4.3127 C.ar    
  21 N21            3.7793     4.8349     3.2722 N.ar    
  22 C22           -0.6434    -2.3520    -1.9889 C.3     
  23 F23           -0.7302    -3.4569    -1.1353 F       
  24 F24           -1.0610    -2.7202    -3.2723 F       
  25 F25            0.6813    -1.9050    -2.0399 F       
  26 H26           -0.9588     1.8985     0.0330 H       
  27 H27            1.2414    -1.7649    -0.0200 H       
  28 H28            3.3492    -0.4938    -0.0381 H       
  29 H29            1.1534     3.1623     0.0200 H       
  30 H30            4.5112     1.4930    -0.0361 H       
  31 H31            4.6551     3.6392    -1.2697 H       
  32 H32            3.6626     2.4577    -2.1569 H       
  33 H33            2.8803     3.7718    -1.2462 H       
  34 H34            5.5812     3.7888     0.8154 H       
  35 H35            6.8794     5.3259     2.1526 H       
  36 H36            6.9006     6.8741     4.0945 H       
  37 H37            4.8522     7.0640     5.4899 H       
  38 H38            2.8714     5.7234     4.9151 H       
@<TRIPOS>BOND
   1    1    2 ar
   2    1    6 ar
   3    1   26 1
   4    2    3 ar
   5    2    9 1
   6    3    4 ar
   7    3   27 1
   8    4    5 ar
   9    4   28 1
  10    5    6 ar
  11    5    7 1
  12    6   29 1
  13    7    8 1
  14    7   13 1
  15    7   30 1
  16    8   31 1
  17    8   32 1
  18    8   33 1
  19    9   10 1
  20   10   11 2
  21   10   12 2
  22   10   22 1
  23   13   14 2
  24   13   15 am
  25   15   16 1
  26   15   34 1
  27   16   17 ar
  28   16   21 ar
  29   17   18 ar
  30   17   35 1
  31   18   19 ar
  32   18   36 1
  33   19   20 ar
  34   19   37 1
  35   20   21 ar
  36   20   38 1
  37   22   23 1
  38   22   24 1
  39   22   25 1

#	End of record

