#	Name: ASD01915392
#	Creating user name:	WinNT
#	Creation time:	15. 06. 2019 20:05

#	Modifying user name:	WinNT
#	Modification time:	15. 06. 2019 20:05

#	Program:	/corina/corina34_cracker 3.40 0067  02.08.2006

@<TRIPOS>MOLECULE
ASD01915392
  46   49    0    0    0
SMALL
NO_CHARGES


@<TRIPOS>ATOM
   1 C1             0.0012     1.3490    -0.0642 C.ar    
   2 C2             0.0385    -0.0429    -0.0913 C.ar    
   3 N3             1.1985    -0.6866    -0.0942 N.ar    
   4 C4             2.3464    -0.0412    -0.0723 C.ar    
   5 C5             2.3834     1.3414    -0.0448 C.ar    
   6 C6             1.1931     2.0536    -0.0408 C.ar    
   7 C7             3.7041     2.0667    -0.0194 C.3     
   8 N8             4.7698     1.1501     0.4114 N.am    
   9 C9             5.7548     1.0247    -0.6784 C.3     
  10 C10            5.5969     2.3240    -1.5069 C.3     
  11 C11            4.0637     2.5521    -1.4395 C.3     
  12 C12            4.8358     0.5280     1.6052 C.2     
  13 O13            4.0199     0.7844     2.4708 O.2     
  14 C14            5.8911    -0.4581     1.8610 C.2     
  15 C15           -1.2299    -0.8125    -0.1166 C.ar    
  16 C16           -1.2214    -2.2095    -0.1439 C.ar    
  17 C17           -2.4243    -2.8862    -0.1664 C.ar    
  18 N18           -3.5693    -2.2317    -0.1623 N.ar    
  19 C19           -3.6213    -0.9138    -0.1368 C.ar    
  20 C20           -2.4659    -0.1598    -0.1078 C.ar    
  21 C21           -2.4293    -4.3929    -0.1965 C.3     
  22 C22            1.1969     3.5603    -0.0117 C.3     
  23 C23            6.1448    -1.0692     3.0454 C.2     
  24 N24            7.1460    -1.9123     3.0105 N.2     
  25 C25            7.7602    -2.0602     1.8809 C.2     
  26 S26            7.0519    -1.0669     0.6833 S.3     
  27 H27           -0.9439     1.8716    -0.0660 H       
  28 H28            3.2712    -0.5990    -0.0754 H       
  29 H29            3.6476     2.9157     0.6618 H       
  30 H30            6.7636     0.9543    -0.2717 H       
  31 H31            5.5311     0.1530    -1.2934 H       
  32 H32            6.1356     3.1507    -1.0438 H       
  33 H33            5.9247     2.1737    -2.5356 H       
  34 H34            3.5513     1.9538    -2.1929 H       
  35 H35            3.8255     3.6092    -1.5576 H       
  36 H36           -0.2874    -2.7518    -0.1478 H       
  37 H37           -4.5810    -0.4184    -0.1347 H       
  38 H38           -2.5158     0.9188    -0.0866 H       
  39 H39           -2.4382    -4.7766     0.8236 H       
  40 H40           -3.3167    -4.7428    -0.7241 H       
  41 H41           -1.5368    -4.7489    -0.7109 H       
  42 H42            1.2063     3.9434    -1.0321 H       
  43 H43            0.3037     3.9161     0.5018 H       
  44 H44            2.0836     3.9113     0.5163 H       
  45 H45            5.5709    -0.8766     3.9398 H       
  46 H46            8.5985    -2.7211     1.7169 H       
@<TRIPOS>BOND
   1    1    2 ar
   2    1    6 ar
   3    1   27 1
   4    2    3 ar
   5    2   15 1
   6    3    4 ar
   7    4    5 ar
   8    4   28 1
   9    5    6 ar
  10    5    7 1
  11    6   22 1
  12    7    8 1
  13    7   11 1
  14    7   29 1
  15    8    9 1
  16    8   12 am
  17    9   10 1
  18    9   30 1
  19    9   31 1
  20   10   11 1
  21   10   32 1
  22   10   33 1
  23   11   34 1
  24   11   35 1
  25   12   13 2
  26   12   14 1
  27   14   23 2
  28   14   26 1
  29   15   16 ar
  30   15   20 ar
  31   16   17 ar
  32   16   36 1
  33   17   18 ar
  34   17   21 1
  35   18   19 ar
  36   19   20 ar
  37   19   37 1
  38   20   38 1
  39   21   39 1
  40   21   40 1
  41   21   41 1
  42   22   42 1
  43   22   43 1
  44   22   44 1
  45   23   24 1
  46   23   45 1
  47   24   25 2
  48   25   26 1
  49   25   46 1

#	End of record

