#	Name: ASD02670005
#	Creating user name:	WinNT
#	Creation time:	15. 06. 2019 20:26

#	Modifying user name:	WinNT
#	Modification time:	15. 06. 2019 20:26

#	Program:	/corina/corina34_cracker 3.40 0067  02.08.2006

@<TRIPOS>MOLECULE
ASD02670005
  24   26    0    0    0
SMALL
NO_CHARGES


@<TRIPOS>ATOM
   1 C1            -0.0184     1.5028     0.0103 C.3     
   2 C2             0.0021    -0.0041     0.0020 C.ar    
   3 N3             0.0219    -0.6632     1.1420 N.ar    
   4 C4             0.0399    -1.9833     1.1981 C.ar    
   5 C5             0.0389    -2.7431     0.0477 C.ar    
   6 C6             0.0183    -2.0921    -1.1853 C.ar    
   7 C7            -0.0059    -0.6869    -1.2087 C.ar    
   8 N8            -0.0230    -0.2757    -2.5278 N.pl3   
   9 C9            -0.0107    -1.3714    -3.3720 C.ar    
  10 C10            0.0107    -2.5355    -2.5878 C.ar    
  11 C11            0.0261    -3.7874    -3.2000 C.ar    
  12 C12            0.0202    -3.8780    -4.5746 C.ar    
  13 C13           -0.0009    -2.7288    -5.3505 C.ar    
  14 C14           -0.0194    -1.4845    -4.7592 C.ar    
  15 H15            1.0042     1.8801     0.0026 H       
  16 H16           -0.5455     1.8639    -0.8728 H       
  17 H17           -0.5286     1.8543     0.9071 H       
  18 H18            0.0561    -2.4746     2.1598 H       
  19 H19            0.0541    -3.8217     0.1004 H       
  20 H20           -0.0416     0.6490    -2.8200 H       
  21 H21            0.0429    -4.6841    -2.5983 H       
  22 H22            0.0325    -4.8478    -5.0498 H       
  23 H23           -0.0050    -2.8099    -6.4275 H       
  24 H24           -0.0358    -0.5959    -5.3728 H       
@<TRIPOS>BOND
   1    1    2 1
   2    1   15 1
   3    1   16 1
   4    1   17 1
   5    2    3 ar
   6    2    7 ar
   7    3    4 ar
   8    4    5 ar
   9    4   18 1
  10    5    6 ar
  11    5   19 1
  12    6    7 ar
  13    6   10 1
  14    7    8 1
  15    8    9 1
  16    8   20 1
  17    9   10 ar
  18    9   14 ar
  19   10   11 ar
  20   11   12 ar
  21   11   21 1
  22   12   13 ar
  23   12   22 1
  24   13   14 ar
  25   13   23 1
  26   14   24 1

#	End of record

