#	Name: ASD01870255
#	Creating user name:	WinNT
#	Creation time:	15. 06. 2019 19:38

#	Modifying user name:	WinNT
#	Modification time:	15. 06. 2019 19:38

#	Program:	/corina/corina34_cracker 3.40 0067  02.08.2006

@<TRIPOS>MOLECULE
ASD01870255
  58   62    0    0    0
SMALL
NO_CHARGES


@<TRIPOS>ATOM
   1 C1            -0.2988     1.8314    -0.4009 C.ar    
   2 C2            -0.4196     0.4444    -0.4355 C.ar    
   3 C3             0.6815    -0.3587    -0.4044 C.ar    
   4 C4             1.9569     0.2181    -0.3371 C.ar    
   5 C5             2.0800     1.6335    -0.3023 C.ar    
   6 C6             0.9249     2.4279    -0.3354 C.ar    
   7 C7             3.1283    -0.5610    -0.3029 C.ar    
   8 N8             4.3031     0.0090    -0.2401 N.ar    
   9 C9             4.4653     1.3388    -0.2054 C.ar    
  10 C10            3.3672     2.1818    -0.2356 C.ar    
  11 C11            5.6841     2.1739    -0.1357 C.2     
  12 N12            5.3578     3.4774    -0.1231 N.am    
  13 C13            3.8960     3.5916    -0.1838 C.3     
  14 C14            6.3020     4.5958    -0.0584 C.3     
  15 C15            7.1257     4.4941     1.2269 C.3     
  16 C16            7.8981     3.1735     1.2345 C.3     
  17 C17            8.8329     3.1224     0.0243 C.3     
  18 C18            8.0091     3.2240    -1.2610 C.3     
  19 C19            7.2367     4.5447    -1.2686 C.3     
  20 C20            3.0276    -2.0642    -0.3385 C.3     
  21 C21            3.0551    -2.5357    -1.7696 C.ar    
  22 C22            4.2555    -2.8352    -2.3841 C.ar    
  23 N23            4.2883    -3.2485    -3.6363 N.ar    
  24 C24            3.1866    -3.3926    -4.3481 C.ar    
  25 C25            1.9479    -3.1114    -3.7988 C.ar    
  26 C26            1.8748    -2.6799    -2.4840 C.ar    
  27 O27            6.8197     1.7424    -0.0956 O.2     
  28 O28            6.2527     4.5419     2.3572 O.3     
  29 C29            3.3716     4.3049     1.0640 C.3     
  30 Cl30           3.2923    -3.9403    -5.9920 Cl      
  31 C31            3.8322     5.7397     1.0534 C.2     
  32 C32            2.9551     6.7085     0.9622 C.2     
  33 H33           -1.1880     2.4437    -0.4310 H       
  34 H34           -1.4016    -0.0022    -0.4874 H       
  35 H35            0.5717    -1.4327    -0.4312 H       
  36 H36            1.0044     3.5046    -0.3099 H       
  37 H37            3.5995     4.1364    -1.0801 H       
  38 H38            5.7517     5.5366    -0.0639 H       
  39 H39            7.8282     5.3262     1.2750 H       
  40 H40            8.4850     3.1011     2.1502 H       
  41 H41            7.1957     2.3414     1.1864 H       
  42 H42            9.5353     3.9544     0.0724 H       
  43 H43            9.3832     2.1815     0.0298 H       
  44 H44            8.6751     3.1876    -2.1231 H       
  45 H45            7.3067     2.3919    -1.3091 H       
  46 H46            6.6499     4.6171    -2.1843 H       
  47 H47            7.9392     5.3767    -1.2205 H       
  48 H48            3.8684    -2.4976     0.2030 H       
  49 H49            2.0941    -2.3770     0.1292 H       
  50 H50            5.1782    -2.7293    -1.8328 H       
  51 H51            1.0494    -3.2303    -4.3861 H       
  52 H52            0.9220    -2.4534    -2.0288 H       
  53 H53            6.7076     4.4823     3.2084 H       
  54 H54            2.2821     4.2730     1.0698 H       
  55 H55            3.7544     3.8070     1.9550 H       
  56 H56            4.8853     5.9693     1.1209 H       
  57 H57            1.9020     6.4789     0.8946 H       
  58 H58            3.2852     7.7368     0.9545 H       
@<TRIPOS>BOND
   1    1    2 ar
   2    1    6 ar
   3    1   33 1
   4    2    3 ar
   5    2   34 1
   6    3    4 ar
   7    3   35 1
   8    4    5 ar
   9    4    7 ar
  10    5    6 ar
  11    5   10 ar
  12    6   36 1
  13    7    8 ar
  14    7   20 1
  15    8    9 ar
  16    9   10 ar
  17    9   11 1
  18   10   13 1
  19   11   12 am
  20   11   27 2
  21   12   13 1
  22   12   14 1
  23   13   29 1
  24   13   37 1
  25   14   15 1
  26   14   19 1
  27   14   38 1
  28   15   16 1
  29   15   28 1
  30   15   39 1
  31   16   17 1
  32   16   40 1
  33   16   41 1
  34   17   18 1
  35   17   42 1
  36   17   43 1
  37   18   19 1
  38   18   44 1
  39   18   45 1
  40   19   46 1
  41   19   47 1
  42   20   21 1
  43   20   48 1
  44   20   49 1
  45   21   22 ar
  46   21   26 ar
  47   22   23 ar
  48   22   50 1
  49   23   24 ar
  50   24   25 ar
  51   24   30 1
  52   25   26 ar
  53   25   51 1
  54   26   52 1
  55   28   53 1
  56   29   31 1
  57   29   54 1
  58   29   55 1
  59   31   32 2
  60   31   56 1
  61   32   57 1
  62   32   58 1

#	End of record

