#	Name: ASD04590030
#	Creating user name:	WinNT
#	Creation time:	15. 06. 2019 20:50

#	Modifying user name:	WinNT
#	Modification time:	15. 06. 2019 20:50

#	Program:	/corina/corina34_cracker 3.40 0067  02.08.2006

@<TRIPOS>MOLECULE
ASD04590030
  37   39    0    0    0
SMALL
NO_CHARGES


@<TRIPOS>ATOM
   1 C1             0.0024     1.6168    -0.8285 C.2     
   2 C2             0.0344     0.1670    -1.1035 C.ar    
   3 C3             1.2561    -0.4932    -1.3026 C.ar    
   4 C4             1.2346    -1.8490    -1.5561 C.ar    
   5 C5             0.0122    -2.5125    -1.6057 C.ar    
   6 N6            -1.1244    -1.8612    -1.4134 N.ar    
   7 C7            -1.1497    -0.5687    -1.1635 C.ar    
   8 O8             1.0402     2.2482    -0.7732 O.2     
   9 N9            -1.1774     2.2418    -0.6443 N.am    
  10 O10           -0.0151    -3.8442    -1.8547 O.3     
  11 N11           -0.6423     5.6997    -0.0222 N.pl3   
  12 N12           -1.9245     5.6588     0.0420 N.2     
  13 C13           -2.3533     4.4287    -0.1660 C.2     
  14 C14           -1.2078     3.6198    -0.3830 C.2     
  15 C15           -0.1459     4.4631    -0.2834 C.2     
  16 C16           -3.7579     3.9792    -0.1720 C.2     
  17 N17           -4.7497     4.8644     0.0501 N.am    
  18 O18           -4.0213     2.8099    -0.3775 O.2     
  19 C19           -6.0854     4.4589    -0.0518 C.ar    
  20 C20           -6.4571     3.1824     0.3492 C.ar    
  21 C21           -7.7758     2.7845     0.2482 C.ar    
  22 C22           -8.7270     3.6572    -0.2529 C.ar    
  23 C23           -8.3585     4.9306    -0.6533 C.ar    
  24 C24           -7.0419     5.3345    -0.5487 C.ar    
  25 F25          -10.0162     3.2657    -0.3516 F       
  26 H26            2.1904     0.0468    -1.2589 H       
  27 H27            2.1560    -2.3896    -1.7146 H       
  28 H28           -2.0963    -0.0724    -1.0078 H       
  29 H29           -2.0054     1.7389    -0.6924 H       
  30 H30            0.0303    -4.3939    -1.0604 H       
  31 H31           -0.1061     6.4995     0.0948 H       
  32 H32            0.8958     4.1993    -0.3920 H       
  33 H33           -4.5378     5.7824     0.2807 H       
  34 H34           -5.7155     2.5012     0.7394 H       
  35 H35           -8.0653     1.7918     0.5600 H       
  36 H36           -9.1018     5.6096    -1.0442 H       
  37 H37           -6.7557     6.3292    -0.8569 H       
@<TRIPOS>BOND
   1    1    2 1
   2    1    8 2
   3    1    9 am
   4    2    3 ar
   5    2    7 ar
   6    3    4 ar
   7    3   26 1
   8    4    5 ar
   9    4   27 1
  10    5    6 ar
  11    5   10 1
  12    6    7 ar
  13    7   28 1
  14    9   14 1
  15    9   29 1
  16   10   30 1
  17   11   12 1
  18   11   15 1
  19   11   31 1
  20   12   13 2
  21   13   14 1
  22   13   16 1
  23   14   15 2
  24   15   32 1
  25   16   17 am
  26   16   18 2
  27   17   19 1
  28   17   33 1
  29   19   20 ar
  30   19   24 ar
  31   20   21 ar
  32   20   34 1
  33   21   22 ar
  34   21   35 1
  35   22   23 ar
  36   22   25 1
  37   23   24 ar
  38   23   36 1
  39   24   37 1

#	End of record

