#	Name: ASD02560055
#	Creating user name:	WinNT
#	Creation time:	15. 06. 2019 20:24

#	Modifying user name:	WinNT
#	Modification time:	15. 06. 2019 20:24

#	Program:	/corina/corina34_cracker 3.40 0067  02.08.2006

@<TRIPOS>MOLECULE
ASD02560055
  39   40    0    0    0
SMALL
NO_CHARGES


@<TRIPOS>ATOM
   1 C1            -0.0844     1.5500    -0.3988 C.ar    
   2 C2            -0.0576     0.1813    -0.5402 C.ar    
   3 C3             1.1504    -0.5002    -0.5455 C.ar    
   4 C4             2.3405     0.1838    -0.4097 C.ar    
   5 C5             2.3372     1.5659    -0.2662 C.ar    
   6 C6             1.1143     2.2610    -0.2598 C.ar    
   7 N7             5.9682     0.1910     1.7204 N.am    
   8 C8             4.8868     0.9174     1.3748 C.2     
   9 C9             4.7929     1.5199    -0.0033 C.3     
  10 N10            3.5325     2.2560    -0.1296 N.pl3   
  11 O11            3.9893     1.0862     2.1729 O.2     
  12 Br12           6.8808     0.4940    -2.0527 Br      
  13 C13            6.9550     2.1306    -1.1084 C.ar    
  14 C14            5.9488     2.4624    -0.2193 C.ar    
  15 C15            8.0185     2.9937    -1.3025 C.ar    
  16 C16            8.0728     4.1900    -0.6123 C.ar    
  17 C17            7.0646     4.5246     0.2720 C.ar    
  18 C18            6.0036     3.6596     0.4710 C.ar    
  19 C19            1.0946     3.7197    -0.1097 C.2     
  20 O20            2.1231     4.3194     0.1235 O.2     
  21 Br21           4.6239     4.1178     1.6804 Br      
  22 C22           -0.2031     4.4737    -0.2450 C.3     
  23 C23            1.1627    -1.9992    -0.7002 C.3     
  24 H24           -1.0279     2.0754    -0.3996 H       
  25 H25           -0.9829    -0.3654    -0.6472 H       
  26 H26            3.2761    -0.3556    -0.4147 H       
  27 H27            6.6860     0.0560     1.0821 H       
  28 H28            6.0287    -0.1968     2.6074 H       
  29 H29            4.8266     0.7264    -0.7498 H       
  30 H30            3.5340     3.2259    -0.1176 H       
  31 H31            8.8067     2.7325    -1.9931 H       
  32 H32            8.9035     4.8634    -0.7638 H       
  33 H33            7.1074     5.4595     0.8111 H       
  34 H34           -0.6828     4.5494     0.7308 H       
  35 H35           -0.0039     5.4736    -0.6305 H       
  36 H36           -0.8614     3.9434    -0.9333 H       
  37 H37            1.2209    -2.2548    -1.7582 H       
  38 H38            2.0268    -2.4112    -0.1788 H       
  39 H39            0.2495    -2.4159    -0.2754 H       
@<TRIPOS>BOND
   1    1    2 ar
   2    1    6 ar
   3    1   24 1
   4    2    3 ar
   5    2   25 1
   6    3    4 ar
   7    3   23 1
   8    4    5 ar
   9    4   26 1
  10    5    6 ar
  11    5   10 1
  12    6   19 1
  13    7    8 am
  14    7   27 1
  15    7   28 1
  16    8    9 1
  17    8   11 2
  18    9   10 1
  19    9   14 1
  20    9   29 1
  21   10   30 1
  22   12   13 1
  23   13   14 ar
  24   13   15 ar
  25   14   18 ar
  26   15   16 ar
  27   15   31 1
  28   16   17 ar
  29   16   32 1
  30   17   18 ar
  31   17   33 1
  32   18   21 1
  33   19   20 2
  34   19   22 1
  35   22   34 1
  36   22   35 1
  37   22   36 1
  38   23   37 1
  39   23   38 1
  40   23   39 1

#	End of record

