#	Name: ASD03430081
#	Creating user name:	WinNT
#	Creation time:	15. 06. 2019 20:40

#	Modifying user name:	WinNT
#	Modification time:	15. 06. 2019 20:40

#	Program:	/corina/corina34_cracker 3.40 0067  02.08.2006

@<TRIPOS>MOLECULE
ASD03430081
  56   60    0    0    0
SMALL
NO_CHARGES


@<TRIPOS>ATOM
   1 C1            -0.0167     1.3826     0.0096 C.ar    
   2 C2             0.0021    -0.0041     0.0020 C.ar    
   3 C3             1.2025    -0.6815    -0.0157 C.ar    
   4 C4             2.4086     0.0136    -0.0156 C.ar    
   5 C5             2.3861     1.4041    -0.0118 C.ar    
   6 C6             1.1811     2.0871     0.0020 C.ar    
   7 O7             3.4712    -0.8413    -0.0057 O.3     
   8 C8             1.5510    -2.1454    -0.0502 C.3     
   9 C9             3.0365    -2.1452    -0.4366 C.3     
  10 C10            0.4282    -3.8603     1.0070 C.ar    
  11 C11            1.3153    -2.8200     1.2684 C.ar    
  12 C12            0.7173    -2.9061    -1.0410 C.2     
  13 N13            0.0986    -3.8845    -0.3504 N.am    
  14 O14            0.6196    -2.6836    -2.2292 O.2     
  15 C15            1.7821    -2.6005     2.5499 C.ar    
  16 C16            1.3664    -3.4225     3.5896 C.ar    
  17 C17            0.4865    -4.4573     3.3366 C.ar    
  18 C18            0.0189    -4.6786     2.0572 C.ar    
  19 O19            2.6477    -1.5815     2.7932 O.3     
  20 C20           -0.8129    -4.8601    -0.9532 C.3     
  21 O21           -1.2112     2.0360     0.0189 O.3     
  22 C22           -1.1869     3.4167     0.3973 C.3     
  23 C23           -0.0355     4.0995    -0.3533 C.3     
  24 O24            1.1861     3.4487     0.0114 O.3     
  25 C25            3.0891    -1.4132     4.1418 C.3     
  26 O26            3.3493     0.9771     3.8982 O.3     
  27 C27            4.0508    -0.2258     4.2193 C.3     
  28 C28            4.1609     2.1524     3.9414 C.3     
  29 C29            3.3106     3.3728     3.5827 C.3     
  30 O30            2.3100     3.5672     4.5843 O.3     
  31 C31            1.4567     4.6879     4.3435 C.3     
  32 H32           -0.9268    -0.5550     0.0104 H       
  33 H33            3.3147     1.9554    -0.0192 H       
  34 H34            3.1560    -2.2565    -1.5144 H       
  35 H35            3.5752    -2.9286     0.0965 H       
  36 H36            1.7301    -3.2535     4.5923 H       
  37 H37            0.1631    -5.0968     4.1446 H       
  38 H38           -0.6684    -5.4902     1.8693 H       
  39 H39           -1.8316    -4.4736    -0.9214 H       
  40 H40           -0.5233    -5.0361    -1.9892 H       
  41 H41           -0.7621    -5.7965    -0.3976 H       
  42 H42           -2.1321     3.8884     0.1283 H       
  43 H43           -1.0262     3.5007     1.4721 H       
  44 H44           -0.1926     4.0092    -1.4282 H       
  45 H45            0.0114     5.1524    -0.0753 H       
  46 H46            2.2291    -1.2268     4.7850 H       
  47 H47            3.6007    -2.3173     4.4721 H       
  48 H48            4.4562    -0.1517     5.2284 H       
  49 H49            4.8657    -0.3714     3.5102 H       
  50 H50            4.5685     2.2759     4.9448 H       
  51 H51            4.9781     2.0562     3.2266 H       
  52 H52            3.9471     4.2560     3.5288 H       
  53 H53            2.8315     3.2107     2.6172 H       
  54 H54            0.9391     4.5531     3.3938 H       
  55 H55            0.7253     4.7671     5.1478 H       
  56 H56            2.0548     5.5984     4.3053 H       
@<TRIPOS>BOND
   1    1    2 ar
   2    1    6 ar
   3    1   21 1
   4    2    3 ar
   5    2   32 1
   6    3    4 ar
   7    3    8 1
   8    4    5 ar
   9    4    7 1
  10    5    6 ar
  11    5   33 1
  12    6   24 1
  13    7    9 1
  14    8    9 1
  15    8   11 1
  16    8   12 1
  17    9   34 1
  18    9   35 1
  19   10   11 ar
  20   10   13 1
  21   10   18 ar
  22   11   15 ar
  23   12   13 am
  24   12   14 2
  25   13   20 1
  26   15   16 ar
  27   15   19 1
  28   16   17 ar
  29   16   36 1
  30   17   18 ar
  31   17   37 1
  32   18   38 1
  33   19   25 1
  34   20   39 1
  35   20   40 1
  36   20   41 1
  37   21   22 1
  38   22   23 1
  39   22   42 1
  40   22   43 1
  41   23   24 1
  42   23   44 1
  43   23   45 1
  44   25   27 1
  45   25   46 1
  46   25   47 1
  47   26   27 1
  48   26   28 1
  49   27   48 1
  50   27   49 1
  51   28   29 1
  52   28   50 1
  53   28   51 1
  54   29   30 1
  55   29   52 1
  56   29   53 1
  57   30   31 1
  58   31   54 1
  59   31   55 1
  60   31   56 1

#	End of record

