#	Name: ASD01420096
#	Creating user name:	WinNT
#	Creation time:	15. 06. 2019 19:20

#	Modifying user name:	WinNT
#	Modification time:	15. 06. 2019 19:20

#	Program:	/corina/corina34_cracker 3.40 0067  02.08.2006

@<TRIPOS>MOLECULE
ASD01420096
  43   45    0    0    0
SMALL
NO_CHARGES


@<TRIPOS>ATOM
   1 C1            -0.0144     1.2120     0.0087 C.2     
   2 O2             0.0203     0.2219    -0.6967 O.2     
   3 C3             1.1702     2.0807     0.1175 C.ar    
   4 C4             2.4465     1.5163     0.2657 C.ar    
   5 C5             3.5543     2.3397     0.3667 C.ar    
   6 C6             3.4015     3.7178     0.3214 C.ar    
   7 C7             2.1367     4.2789     0.1745 C.ar    
   8 C8             1.0283     3.4707     0.0677 C.ar    
   9 C9             1.9809     5.7770     0.1268 C.3     
  10 C10            1.3477     6.1818    -1.2059 C.3     
  11 C11            1.0820     6.2332     1.2779 C.3     
  12 O12            4.4900     4.5221     0.4212 O.3     
  13 O13            2.5938     0.1685     0.3102 O.3     
  14 C14           -1.3060     2.6056     1.6549 C.3     
  15 N15           -1.1386     1.5175     0.6865 N.am    
  16 C16           -2.4280     0.8252     0.5965 C.3     
  17 C17           -3.3862     1.5169     1.5331 C.ar    
  18 C18           -4.7148     1.2653     1.8245 C.ar    
  19 C19           -5.3882     2.0616     2.7408 C.ar    
  20 C20           -4.7237     3.1109     3.3634 C.ar    
  21 C21           -3.3982     3.3569     3.0685 C.ar    
  22 C22           -2.7284     2.5609     2.1538 C.ar    
  23 N23           -6.7299     1.8089     3.0356 N.pl3   
  24 H24            4.5381     1.9093     0.4812 H       
  25 H25            0.0488     3.9099    -0.0507 H       
  26 H26            2.9596     6.2473     0.2218 H       
  27 H27            1.9881     5.8568    -2.0259 H       
  28 H28            0.3690     5.7115    -1.3009 H       
  29 H29            1.2350     7.2654    -1.2404 H       
  30 H30            1.5331     5.9448     2.2273 H       
  31 H31            0.9693     7.3168     1.2434 H       
  32 H32            0.1033     5.7629     1.1829 H       
  33 H33            4.8997     4.7367    -0.4280 H       
  34 H34            2.7302    -0.2411    -0.5551 H       
  35 H35           -0.6176     2.4673     2.4886 H       
  36 H36           -1.1141     3.5634     1.1713 H       
  37 H37           -2.8057     0.8791    -0.4245 H       
  38 H38           -2.3092    -0.2170     0.8929 H       
  39 H39           -5.2287     0.4491     1.3386 H       
  40 H40           -5.2437     3.7332     4.0766 H       
  41 H41           -2.8816     4.1728     3.5521 H       
  42 H42           -7.1925     1.0761     2.5998 H       
  43 H43           -7.1990     2.3662     3.6760 H       
@<TRIPOS>BOND
   1    1    2 2
   2    1    3 1
   3    1   15 am
   4    3    4 ar
   5    3    8 ar
   6    4    5 ar
   7    4   13 1
   8    5    6 ar
   9    5   24 1
  10    6    7 ar
  11    6   12 1
  12    7    8 ar
  13    7    9 1
  14    8   25 1
  15    9   10 1
  16    9   11 1
  17    9   26 1
  18   10   27 1
  19   10   28 1
  20   10   29 1
  21   11   30 1
  22   11   31 1
  23   11   32 1
  24   12   33 1
  25   13   34 1
  26   14   15 1
  27   14   22 1
  28   14   35 1
  29   14   36 1
  30   15   16 1
  31   16   17 1
  32   16   37 1
  33   16   38 1
  34   17   18 ar
  35   17   22 ar
  36   18   19 ar
  37   18   39 1
  38   19   20 ar
  39   19   23 1
  40   20   21 ar
  41   20   40 1
  42   21   22 ar
  43   21   41 1
  44   23   42 1
  45   23   43 1

#	End of record

