#	Name: ASD04910043
#	Creating user name:	WinNT
#	Creation time:	15. 06. 2019 20:55

#	Modifying user name:	WinNT
#	Modification time:	15. 06. 2019 20:55

#	Program:	/corina/corina34_cracker 3.40 0067  02.08.2006

@<TRIPOS>MOLECULE
ASD04910043
  63   65    0    0    0
SMALL
NO_CHARGES


@<TRIPOS>ATOM
   1 C1            -2.5209    -0.2264     2.3051 C.2     
   2 C2            -2.1485    -1.5805     1.7585 C.3     
   3 C3            -0.6328    -1.7681     1.8499 C.3     
   4 O4            -1.6621     0.5128     2.7246 O.2     
   5 O5            -3.8061     0.1608     2.3206 O.3     
   6 C6             1.0202    -3.4710     1.2979 C.2     
   7 C7             1.3855    -4.7995     0.7617 C.ar    
   8 C8             2.7231    -5.2129     0.7345 C.ar    
   9 C9             3.0118    -6.4657     0.2231 C.ar    
  10 C10            1.9799    -7.2621    -0.2407 C.ar    
  11 N11            0.7286    -6.8460    -0.2026 N.ar    
  12 C12            0.4028    -5.6646     0.2796 C.ar    
  13 O13            1.8841    -2.7274     1.7200 O.2     
  14 N14           -0.2708    -3.0845     1.3186 N.am    
  15 C15            2.2905    -8.6270    -0.7989 C.3     
  16 C16            1.4680    -9.6813    -0.0555 C.3     
  17 C17            1.8796   -11.0766    -0.5293 C.3     
  18 C18            3.3282   -11.3480    -0.1185 C.3     
  19 N19            1.9531    -8.6600    -2.2242 N.pl3   
  20 C20            4.1453    -7.8035    -2.7812 C.ar    
  21 C21            2.8731    -8.1998    -3.1714 C.ar    
  22 C22            2.5251    -8.1334    -4.5190 C.ar    
  23 C23            3.4679    -7.6720    -5.4207 C.ar    
  24 C24            4.7209    -7.2930    -4.9563 C.ar    
  25 N25            5.0176    -7.3691    -3.6692 N.ar    
  26 N26            5.6811    -6.8250    -5.8607 N.pl3   
  27 N27            5.4239    -6.1985    -7.0870 N.2     
  28 C28            6.5701    -5.9059    -7.6461 C.2     
  29 C29            7.5967    -6.3347    -6.7975 C.2     
  30 C30            7.0283    -6.8920    -5.7033 C.2     
  31 C31            9.0751    -6.1954    -7.0544 C.3     
  32 F32            9.2768    -5.5634    -8.2862 F       
  33 F33            9.6552    -5.4301    -6.0371 F       
  34 F34            9.6657    -7.4634    -7.0786 F       
  35 C35            3.1394    -7.5823    -6.8888 C.3     
  36 C36            0.9639   -12.1229     0.1092 C.3     
  37 H37           -2.6464    -2.3564     2.3400 H       
  38 H38           -2.4611    -1.6503     0.7166 H       
  39 H39           -0.1349    -0.9921     1.2685 H       
  40 H40           -0.3203    -1.6983     2.8918 H       
  41 H41           -3.9960     1.0379     2.6808 H       
  42 H42            3.5091    -4.5704     1.1030 H       
  43 H43            4.0321    -6.8180     0.1859 H       
  44 H44           -0.6335    -5.3610     0.2979 H       
  45 H45           -0.9602    -3.6779     0.9818 H       
  46 H46            3.3522    -8.8385    -0.6719 H       
  47 H47            1.6481    -9.5936     1.0159 H       
  48 H48            0.4086    -9.5261    -0.2598 H       
  49 H49            1.7932   -11.1320    -1.6145 H       
  50 H50            3.6251   -12.3376    -0.4659 H       
  51 H51            3.9793   -10.5960    -0.5643 H       
  52 H52            3.4123   -11.3038     0.9673 H       
  53 H53            1.0915    -9.0011    -2.5108 H       
  54 H54            4.4219    -7.8475    -1.7382 H       
  55 H55            1.5430    -8.4352    -4.8519 H       
  56 H56            6.7015    -5.4167    -8.5999 H       
  57 H57            7.5514    -7.3158    -4.8588 H       
  58 H58            2.8226    -6.5673    -7.1288 H       
  59 H59            4.0229    -7.8353    -7.4749 H       
  60 H60            2.3352    -8.2793    -7.1244 H       
  61 H61           -0.0681   -11.9295    -0.1835 H       
  62 H62            1.2571   -13.1169    -0.2283 H       
  63 H63            1.0503   -12.0675     1.1944 H       
@<TRIPOS>BOND
   1    1    2 1
   2    1    4 2
   3    1    5 1
   4    2    3 1
   5    2   37 1
   6    2   38 1
   7    3   14 1
   8    3   39 1
   9    3   40 1
  10    5   41 1
  11    6    7 1
  12    6   13 2
  13    6   14 am
  14    7    8 ar
  15    7   12 ar
  16    8    9 ar
  17    8   42 1
  18    9   10 ar
  19    9   43 1
  20   10   11 ar
  21   10   15 1
  22   11   12 ar
  23   12   44 1
  24   14   45 1
  25   15   16 1
  26   15   19 1
  27   15   46 1
  28   16   17 1
  29   16   47 1
  30   16   48 1
  31   17   18 1
  32   17   36 1
  33   17   49 1
  34   18   50 1
  35   18   51 1
  36   18   52 1
  37   19   21 1
  38   19   53 1
  39   20   21 ar
  40   20   25 ar
  41   20   54 1
  42   21   22 ar
  43   22   23 ar
  44   22   55 1
  45   23   24 ar
  46   23   35 1
  47   24   25 ar
  48   24   26 1
  49   26   27 1
  50   26   30 1
  51   27   28 2
  52   28   29 1
  53   28   56 1
  54   29   30 2
  55   29   31 1
  56   30   57 1
  57   31   32 1
  58   31   33 1
  59   31   34 1
  60   35   58 1
  61   35   59 1
  62   35   60 1
  63   36   61 1
  64   36   62 1
  65   36   63 1

#	End of record

