#	Name: ASD02440004
#	Creating user name:	WinNT
#	Creation time:	15. 06. 2019 20:21

#	Modifying user name:	WinNT
#	Modification time:	15. 06. 2019 20:21

#	Program:	/corina/corina34_cracker 3.40 0067  02.08.2006

@<TRIPOS>MOLECULE
ASD02440004
  18   19    0    0    0
SMALL
NO_CHARGES


@<TRIPOS>ATOM
   1 N1            -0.0144     1.2109     0.0087 N.2     
   2 O2             0.0021    -0.0041     0.0020 O.3     
   3 N3             1.0985    -0.5272    -0.0113 N.2     
   4 C4             2.0186     0.4057    -0.0150 C.ar    
   5 C5             1.2158     1.6549    -0.0007 C.ar    
   6 C6             3.4222     0.5081    -0.0279 C.ar    
   7 C7             4.0122     1.7274    -0.0270 C.ar    
   8 C8             3.2806     2.9199    -0.0131 C.ar    
   9 C9             1.9208     2.9268    -0.0002 C.ar    
  10 F10            1.2382     4.0926     0.0126 F       
  11 S11            4.4118    -0.9496    -0.0446 S.o2    
  12 O12            3.8807    -1.7835    -1.0654 O.2     
  13 O13            5.7649    -0.5163    -0.0206 O.2     
  14 N14            4.1477    -1.7378     1.3876 N.am    
  15 H15            5.0908     1.7812    -0.0370 H       
  16 H16            3.8105     3.8610    -0.0124 H       
  17 H17            3.5349    -1.3650     2.0406 H       
  18 H18            4.6058    -2.5724     1.5736 H       
@<TRIPOS>BOND
   1    1    2 1
   2    1    5 2
   3    2    3 1
   4    3    4 2
   5    4    5 ar
   6    4    6 ar
   7    5    9 ar
   8    6    7 ar
   9    6   11 1
  10    7    8 ar
  11    7   15 1
  12    8    9 ar
  13    8   16 1
  14    9   10 1
  15   11   12 2
  16   11   13 2
  17   11   14 am
  18   14   17 1
  19   14   18 1

#	End of record

