#	Name: ASD01810383
#	Creating user name:	WinNT
#	Creation time:	15. 06. 2019 19:24

#	Modifying user name:	WinNT
#	Modification time:	15. 06. 2019 19:24

#	Program:	/corina/corina34_cracker 3.40 0067  02.08.2006

@<TRIPOS>MOLECULE
ASD01810383
  65   70    0    0    0
SMALL
NO_CHARGES


@<TRIPOS>ATOM
   1 N1            -0.1586     1.1370    -0.0218 N.pl3   
   2 C2            -0.3799    -0.2000    -0.0968 C.2     
   3 C3             0.6744    -1.0017    -0.4804 C.2     
   4 C4             1.9696    -0.4197    -0.9209 C.2     
   5 C5             2.0972     1.0748    -1.0472 C.3     
   6 C6             3.5274     1.5432    -0.7932 C.3     
   7 C7             3.5737     3.0695    -0.9260 C.3     
   8 C8             2.6234     3.7162     0.0813 C.3     
   9 C9             1.1930     3.2122    -0.1424 C.3     
  10 C10            1.1799     1.6958     0.0130 C.3     
  11 N11            2.1471    -2.6249    -0.9288 N.am    
  12 N12            2.7710    -1.3902    -1.1479 N.2     
  13 C13            0.8606    -2.4368    -0.5481 C.2     
  14 O14            0.0303    -3.2981    -0.3105 O.2     
  15 C15           -1.3076     2.0450     0.0193 C.3     
  16 C16            2.7643    -3.8739    -1.0808 C.ar    
  17 C17            3.3765    -4.2071    -2.2845 C.ar    
  18 C18            3.9843    -5.4405    -2.4302 C.ar    
  19 C19            3.9834    -6.3412    -1.3807 C.ar    
  20 C20            3.3755    -6.0120    -0.1835 C.ar    
  21 C21            2.7712    -4.7790    -0.0288 C.ar    
  22 F22            3.3769    -3.3272    -3.3098 F       
  23 C23           -1.8023     2.1654     1.4377 C.ar    
  24 C24           -1.3811     3.2188     2.2282 C.ar    
  25 C25           -2.6809     1.2254     1.9441 C.ar    
  26 C26           -3.1363     1.3333     3.2436 C.ar    
  27 C27           -2.7111     2.3869     4.0415 C.ar    
  28 C28           -1.8327     3.3318     3.5286 C.ar    
  29 N29           -3.1716     2.4992     5.3608 N.pl3   
  30 N30           -4.0582     1.6243     6.0018 N.2     
  31 C31           -2.8340     3.4679     6.2419 C.2     
  32 C32           -3.4889     3.2180     7.3994 C.2     
  33 C33           -4.2492     2.0568     7.2222 C.2     
  34 O34            3.9293     1.1641     0.5247 O.3     
  35 C35            5.3309     0.9187     0.6569 C.3     
  36 C36            5.6405     0.5284     2.0792 C.2     
  37 C37            6.4339    -0.4853     2.3223 C.2     
  38 H38           -1.3469    -0.6209     0.1360 H       
  39 H39            1.7818     1.3860    -2.0430 H       
  40 H40            4.1959     1.0917    -1.5263 H       
  41 H41            4.5896     3.4176    -0.7391 H       
  42 H42            3.2772     3.3532    -1.9358 H       
  43 H43            2.9418     3.4627     1.0925 H       
  44 H44            2.6484     4.7989    -0.0421 H       
  45 H45            0.5276     3.6611     0.5950 H       
  46 H46            0.8639     3.4798    -1.1465 H       
  47 H47            1.6071     1.4736     0.9908 H       
  48 H48           -1.0076     3.0274    -0.3455 H       
  49 H49           -2.1047     1.6511    -0.6113 H       
  50 H50            4.4597    -5.7008    -3.3644 H       
  51 H51            4.4584    -7.3042    -1.4968 H       
  52 H52            3.3768    -6.7180     0.6338 H       
  53 H53            2.3006    -4.5216     0.9086 H       
  54 H54           -0.6980     3.9537     1.8286 H       
  55 H55           -3.0116     0.4062     1.3229 H       
  56 H56           -3.8228     0.5990     3.6385 H       
  57 H57           -1.4999     4.1524     4.1470 H       
  58 H58           -2.1624     4.2928     6.0552 H       
  59 H59           -3.4322     3.8087     8.3017 H       
  60 H60           -4.8847     1.5969     7.9645 H       
  61 H61            5.6230     0.1104    -0.0135 H       
  62 H62            5.8838     1.8221     0.3994 H       
  63 H63            5.2084     1.0845     2.8980 H       
  64 H64            6.6558    -0.7650     3.3416 H       
  65 H65            6.8660    -1.0413     1.5035 H       
@<TRIPOS>BOND
   1    1    2 1
   2    1   10 1
   3    1   15 1
   4    2    3 2
   5    2   38 1
   6    3    4 1
   7    3   13 1
   8    4    5 1
   9    4   12 2
  10    5    6 1
  11    5   10 1
  12    5   39 1
  13    6    7 1
  14    6   34 1
  15    6   40 1
  16    7    8 1
  17    7   41 1
  18    7   42 1
  19    8    9 1
  20    8   43 1
  21    8   44 1
  22    9   10 1
  23    9   45 1
  24    9   46 1
  25   10   47 1
  26   11   12 1
  27   11   13 am
  28   11   16 1
  29   13   14 2
  30   15   23 1
  31   15   48 1
  32   15   49 1
  33   16   17 ar
  34   16   21 ar
  35   17   18 ar
  36   17   22 1
  37   18   19 ar
  38   18   50 1
  39   19   20 ar
  40   19   51 1
  41   20   21 ar
  42   20   52 1
  43   21   53 1
  44   23   24 ar
  45   23   25 ar
  46   24   28 ar
  47   24   54 1
  48   25   26 ar
  49   25   55 1
  50   26   27 ar
  51   26   56 1
  52   27   28 ar
  53   27   29 1
  54   28   57 1
  55   29   30 1
  56   29   31 1
  57   30   33 2
  58   31   32 2
  59   31   58 1
  60   32   33 1
  61   32   59 1
  62   33   60 1
  63   34   35 1
  64   35   36 1
  65   35   61 1
  66   35   62 1
  67   36   37 2
  68   36   63 1
  69   37   64 1
  70   37   65 1

#	End of record

