#	Name: ASD02030341
#	Creating user name:	WinNT
#	Creation time:	15. 06. 2019 20:15

#	Modifying user name:	WinNT
#	Modification time:	15. 06. 2019 20:15

#	Program:	/corina/corina34_cracker 3.40 0067  02.08.2006

@<TRIPOS>MOLECULE
ASD02030341
  52   55    0    0    0
SMALL
NO_CHARGES


@<TRIPOS>ATOM
   1 N1            -0.2090     1.7761    -0.2294 N.am    
   2 C2            -0.2461     0.3097    -0.3197 C.3     
   3 C3            -1.0403    -0.2349     0.8740 C.3     
   4 N4            -2.3088     0.5012     0.9692 N.am    
   5 C5            -2.2717     1.9676     1.0595 C.3     
   6 C6            -1.4772     2.5118    -0.1285 C.3     
   7 C7             0.9673     2.4340    -0.2333 C.2     
   8 C8             2.2371     1.6783    -0.1887 C.2     
   9 N9             3.4400     2.1940    -0.0553 N.2     
  10 N10            2.3657     0.3414    -0.2714 N.2     
  11 C11            3.6430     0.0679    -0.1920 C.2     
  12 N12            4.3026     1.2367    -0.0570 N.pl3   
  13 O13            0.9840     3.6489    -0.2735 O.2     
  14 C14           -3.4850    -0.1568     0.9731 C.2     
  15 C15           -3.5054    -1.6386     0.9505 C.ar    
  16 O16           -4.5288     0.4649     0.9952 O.2     
  17 C17           -1.1936     4.0005     0.0821 C.3     
  18 C18           -2.2799     2.3156    -1.4162 C.3     
  19 C19            5.6911     1.3849     0.0609 C.ar    
  20 C20            6.2465     2.6500     0.1948 C.ar    
  21 C21            7.6167     2.7928     0.3114 C.ar    
  22 C22            8.4335     1.6759     0.2942 C.ar    
  23 C23            7.8821     0.4148     0.1609 C.ar    
  24 C24            6.5136     0.2659     0.0498 C.ar    
  25 N25           -2.4046    -2.3134     1.2444 N.ar    
  26 C26           -2.3806    -3.6377     1.2361 C.ar    
  27 C27           -3.5268    -4.3692     0.9136 C.ar    
  28 C28           -4.6947    -3.6938     0.6012 C.ar    
  29 C29           -4.6858    -2.3078     0.6252 C.ar    
  30 C30           -1.1680    -4.3268     1.5606 C.1     
  31 N31           -0.2060    -4.8734     1.8179 N.1     
  32 Cl32           8.3129     4.3742     0.4789 Cl      
  33 H33           -0.7324     0.0126    -1.2489 H       
  34 H34            0.7699    -0.0843    -0.2935 H       
  35 H35           -1.2431    -1.2955     0.7252 H       
  36 H36           -0.4663    -0.0946     1.7899 H       
  37 H37           -3.2877     2.3615     1.0333 H       
  38 H38           -1.7854     2.2646     1.9887 H       
  39 H39            4.0881    -0.9156    -0.2254 H       
  40 H40           -0.4453     4.1205     0.8655 H       
  41 H41           -0.8210     4.4342    -0.8458 H       
  42 H42           -2.1126     4.5073     0.3768 H       
  43 H43           -3.2270     2.8495    -1.3388 H       
  44 H44           -1.7117     2.7042    -2.2613 H       
  45 H45           -2.4728     1.2533    -1.5657 H       
  46 H46            5.6090     3.5217     0.2075 H       
  47 H47            9.5037     1.7894     0.3847 H       
  48 H48            8.5221    -0.4550     0.1475 H       
  49 H49            6.0840    -0.7195    -0.0539 H       
  50 H50           -3.5019    -5.4489     0.9075 H       
  51 H51           -5.5942    -4.2353     0.3484 H       
  52 H52           -5.5806    -1.7520     0.3869 H       
@<TRIPOS>BOND
   1    1    2 1
   2    1    7 am
   3    1    6 1
   4    2    3 1
   5    2   33 1
   6    2   34 1
   7    3    4 1
   8    3   35 1
   9    3   36 1
  10    4    5 1
  11    4   14 am
  12    5    6 1
  13    5   37 1
  14    5   38 1
  15    6   17 1
  16    6   18 1
  17    7    8 1
  18    7   13 2
  19    8    9 2
  20    8   10 1
  21    9   12 1
  22   10   11 2
  23   11   12 1
  24   11   39 1
  25   12   19 1
  26   14   15 1
  27   14   16 2
  28   15   25 ar
  29   15   29 ar
  30   17   40 1
  31   17   41 1
  32   17   42 1
  33   18   43 1
  34   18   44 1
  35   18   45 1
  36   19   20 ar
  37   19   24 ar
  38   20   21 ar
  39   20   46 1
  40   21   22 ar
  41   21   32 1
  42   22   23 ar
  43   22   47 1
  44   23   24 ar
  45   23   48 1
  46   24   49 1
  47   25   26 ar
  48   26   27 ar
  49   26   30 1
  50   27   28 ar
  51   27   50 1
  52   28   29 ar
  53   28   51 1
  54   29   52 1
  55   30   31 3

#	End of record

