#	Name: ASD01148799
#	Creating user name:	WinNT
#	Creation time:	15. 06. 2019 19:03

#	Modifying user name:	WinNT
#	Modification time:	15. 06. 2019 19:03

#	Program:	/corina/corina34_cracker 3.40 0067  02.08.2006

@<TRIPOS>MOLECULE
ASD01148799
  65   68    0    0    0
SMALL
NO_CHARGES


@<TRIPOS>ATOM
   1 N1             0.0776     1.2738    -0.6377 N.pl3   
   2 C2             0.0654    -0.0613    -0.8602 C.2     
   3 C3             1.3047    -0.5774    -0.5498 C.2     
   4 C4             2.1254     0.5601    -0.1021 C.2     
   5 C5             1.3099     1.6719    -0.1799 C.2     
   6 C6             1.7238    -1.9828    -0.6463 C.2     
   7 O7             2.2133    -2.4016    -1.6772 O.2     
   8 O8             1.5654    -2.8074     0.4083 O.3     
   9 C9            -1.0109     2.1296    -0.8501 C.ar    
  10 C10           -2.1374     2.0356    -0.0438 C.ar    
  11 C11           -3.2091     2.8808    -0.2557 C.ar    
  12 C12           -3.1609     3.8197    -1.2698 C.ar    
  13 C13           -2.0405     3.9157    -2.0745 C.ar    
  14 C14           -0.9633     3.0773    -1.8639 C.ar    
  15 S15           -4.5303     4.8957    -1.5374 S.o2    
  16 O16           -4.4493     5.3192    -2.8914 O.2     
  17 O17           -5.6681     4.2396    -0.9950 O.2     
  18 N18           -4.2822     6.2449    -0.6098 N.am    
  19 C19           -1.1123    -0.8544    -1.3652 C.3     
  20 C20            3.5369     0.5201     0.3416 C.ar    
  21 C21            4.5476     0.2101    -0.5695 C.ar    
  22 C22            5.8612     0.1741    -0.1537 C.ar    
  23 C23            6.1798     0.4456     1.1721 C.ar    
  24 C24            5.1751     0.7547     2.0819 C.ar    
  25 C25            3.8602     0.7979     1.6705 C.ar    
  26 N26            7.5114     0.4074     1.5907 N.am    
  27 S27            8.0530    -0.8558     2.5144 S.o2    
  28 O28            9.4247    -0.5616     2.7407 O.2     
  29 O29            7.1303    -0.9221     3.5931 O.2     
  30 C30            7.8822    -2.3077     1.4405 C.3     
  31 C31            1.6968     3.0531     0.1695 C.ar    
  32 C32            0.9372     3.7836     1.0862 C.ar    
  33 C33            1.3039     5.0734     1.4083 C.ar    
  34 C34            2.4226     5.6446     0.8249 C.ar    
  35 C35            3.1799     4.9257    -0.0847 C.ar    
  36 C36            2.8272     3.6329    -0.4110 C.ar    
  37 Cl37           2.8771     7.2690     1.2353 Cl      
  38 C38            2.0017    -4.1822     0.2415 C.3     
  39 C39            1.7438    -4.9594     1.5339 C.3     
  40 H40           -2.1758     1.3023     0.7481 H       
  41 H41           -4.0857     2.8080     0.3709 H       
  42 H42           -2.0060     4.6498    -2.8659 H       
  43 H43           -0.0866     3.1559    -2.4896 H       
  44 H44           -3.4870     6.3151    -0.0587 H       
  45 H45           -4.9321     6.9650    -0.6175 H       
  46 H46           -1.0880    -0.8873    -2.4545 H       
  47 H47           -1.0634    -1.8691    -0.9700 H       
  48 H48           -2.0373    -0.3806    -1.0366 H       
  49 H49            4.3007    -0.0016    -1.5994 H       
  50 H50            6.6438    -0.0657    -0.8583 H       
  51 H51            5.4254     0.9652     3.1112 H       
  52 H52            3.0806     1.0424     2.3767 H       
  53 H53            8.1191     1.1208     1.3405 H       
  54 H54            8.4132    -2.1321     0.5049 H       
  55 H55            8.3039    -3.1803     1.9394 H       
  56 H56            6.8269    -2.4832     1.2318 H       
  57 H57            0.0644     3.3394     1.5415 H       
  58 H58            0.7172     5.6395     2.1167 H       
  59 H59            4.0510     5.3768    -0.5365 H       
  60 H60            3.4211     3.0717    -1.1171 H       
  61 H61            1.4472    -4.6427    -0.5762 H       
  62 H62            3.0673    -4.2001     0.0133 H       
  63 H63            0.6781    -4.9416     1.7621 H       
  64 H64            2.0713    -5.9915     1.4087 H       
  65 H65            2.2982    -4.4990     2.3516 H       
@<TRIPOS>BOND
   1    1    2 1
   2    1    5 1
   3    1    9 1
   4    2    3 2
   5    2   19 1
   6    3    4 1
   7    3    6 1
   8    4    5 2
   9    4   20 1
  10    5   31 1
  11    6    7 2
  12    6    8 1
  13    8   38 1
  14    9   10 ar
  15    9   14 ar
  16   10   11 ar
  17   10   40 1
  18   11   12 ar
  19   11   41 1
  20   12   13 ar
  21   12   15 1
  22   13   14 ar
  23   13   42 1
  24   14   43 1
  25   15   16 2
  26   15   17 2
  27   15   18 am
  28   18   44 1
  29   18   45 1
  30   19   46 1
  31   19   47 1
  32   19   48 1
  33   20   21 ar
  34   20   25 ar
  35   21   22 ar
  36   21   49 1
  37   22   23 ar
  38   22   50 1
  39   23   24 ar
  40   23   26 1
  41   24   25 ar
  42   24   51 1
  43   25   52 1
  44   26   27 am
  45   26   53 1
  46   27   28 2
  47   27   29 2
  48   27   30 1
  49   30   54 1
  50   30   55 1
  51   30   56 1
  52   31   32 ar
  53   31   36 ar
  54   32   33 ar
  55   32   57 1
  56   33   34 ar
  57   33   58 1
  58   34   35 ar
  59   34   37 1
  60   35   36 ar
  61   35   59 1
  62   36   60 1
  63   38   39 1
  64   38   61 1
  65   38   62 1
  66   39   63 1
  67   39   64 1
  68   39   65 1

#	End of record

