#	Name: ASD01811179
#	Creating user name:	WinNT
#	Creation time:	15. 06. 2019 19:26

#	Modifying user name:	WinNT
#	Modification time:	15. 06. 2019 19:26

#	Program:	/corina/corina34_cracker 3.40 0067  02.08.2006

@<TRIPOS>MOLECULE
ASD01811179
  41   43    0    0    0
SMALL
NO_CHARGES


@<TRIPOS>ATOM
   1 C1             0.3642     1.4536     0.0428 C.2     
   2 C2             0.1873    -0.0130     0.0178 C.ar    
   3 C3             1.3012    -0.8512    -0.0789 C.ar    
   4 C4             1.1373    -2.2216    -0.1023 C.ar    
   5 C5            -0.1267    -2.7737    -0.0300 C.ar    
   6 C6            -1.2484    -1.9478     0.0674 C.ar    
   7 C7            -1.0904    -0.5640     0.0965 C.ar    
   8 O8             1.4808     1.9301     0.0848 O.2     
   9 O9            -0.7126     2.2625     0.0133 O.3     
  10 C10            2.6842    -0.2579    -0.1583 C.3     
  11 N11           -4.1639    -3.9776     0.2708 N.2     
  12 N12           -2.8895    -3.8195     0.2186 N.2     
  13 C13           -2.6010    -2.5410     0.1443 C.2     
  14 N14           -3.7934    -1.8582     0.1513 N.pl3   
  15 C15           -4.7641    -2.8119     0.2330 C.2     
  16 O16           -6.1011    -2.5957     0.2690 O.3     
  17 C17           -6.9424    -3.7474     0.3572 C.3     
  18 C18           -8.4076    -3.3077     0.3862 C.3     
  19 C19           -0.2956    -4.2709    -0.0568 C.3     
  20 C20            0.0950    -4.9110    -1.3993 C.3     
  21 C21            0.7275    -6.0501    -0.5825 C.3     
  22 C22            0.8865    -5.0354     0.5620 C.3     
  23 H23            2.0014    -2.8651    -0.1779 H       
  24 H24           -1.9544     0.0791     0.1758 H       
  25 H25           -0.5468     3.2150     0.0314 H       
  26 H26            3.0388    -0.0271     0.8462 H       
  27 H27            3.3601    -0.9732    -0.6269 H       
  28 H28            2.6539     0.6559    -0.7518 H       
  29 H29           -3.9184    -0.8973     0.1073 H       
  30 H30           -6.7726    -4.3885    -0.5079 H       
  31 H31           -6.7102    -4.2980     1.2687 H       
  32 H32           -8.5774    -2.6666     1.2512 H       
  33 H33           -8.6398    -2.7570    -0.5253 H       
  34 H34           -9.0493    -4.1862     0.4535 H       
  35 H35           -1.2684    -4.5938     0.3143 H       
  36 H36           -0.7598    -5.2256    -1.9982 H       
  37 H37            0.8190    -4.3268    -1.9673 H       
  38 H38            0.0351    -6.8605    -0.3545 H       
  39 H39            1.6757    -6.4036    -0.9876 H       
  40 H40            1.8270    -4.4852     0.5302 H       
  41 H41            0.6708    -5.4504     1.5465 H       
@<TRIPOS>BOND
   1    1    2 1
   2    1    8 2
   3    1    9 1
   4    2    3 ar
   5    2    7 ar
   6    3    4 ar
   7    3   10 1
   8    4    5 ar
   9    4   23 1
  10    5    6 ar
  11    5   19 1
  12    6    7 ar
  13    6   13 1
  14    7   24 1
  15    9   25 1
  16   10   26 1
  17   10   27 1
  18   10   28 1
  19   11   12 1
  20   11   15 2
  21   12   13 2
  22   13   14 1
  23   14   15 1
  24   14   29 1
  25   15   16 1
  26   16   17 1
  27   17   18 1
  28   17   30 1
  29   17   31 1
  30   18   32 1
  31   18   33 1
  32   18   34 1
  33   19   20 1
  34   19   22 1
  35   19   35 1
  36   20   21 1
  37   20   36 1
  38   20   37 1
  39   21   22 1
  40   21   38 1
  41   21   39 1
  42   22   40 1
  43   22   41 1

#	End of record

