#	Name: ASD00840582
#	Creating user name:	WinNT
#	Creation time:	15. 06. 2019 18:39

#	Modifying user name:	WinNT
#	Modification time:	15. 06. 2019 18:39

#	Program:	/corina/corina34_cracker 3.40 0067  02.08.2006

@<TRIPOS>MOLECULE
ASD00840582
  85   90    0    0    0
SMALL
NO_CHARGES


@<TRIPOS>ATOM
   1 N1             1.0653     1.4638    -0.7389 N.ar    
   2 C2             1.3282     0.1727    -0.8522 C.ar    
   3 C3             1.2501    -0.6652     0.2532 C.ar    
   4 C4             0.8925    -0.1313     1.4787 C.ar    
   5 C5             0.6245     1.2287     1.5557 C.ar    
   6 C6             0.7218     2.0017     0.4161 C.ar    
   7 C7             1.5501    -2.1359     0.1192 C.3     
   8 C8             1.2697    -2.8552     1.4214 C.2     
   9 C9             0.7299    -2.7475    -1.0184 C.3     
  10 C10           -0.7324    -2.4609    -0.7937 C.2     
  11 N11           -1.6566    -2.9804    -1.6259 N.am    
  12 O12           -1.0776    -1.7626     0.1359 O.2     
  13 C13           -3.0745    -2.6209    -1.4881 C.3     
  14 C14           -3.9003    -3.9063    -1.3752 C.3     
  15 C15           -3.5946    -4.8109    -2.5712 C.3     
  16 C16           -2.1113    -5.1875    -2.5621 C.3     
  17 C17           -1.2644    -3.9123    -2.6920 C.3     
  18 C18           -4.4434    -6.0806    -2.4800 C.3     
  19 C19           -5.9279    -5.7056    -2.4906 C.3     
  20 C20           -6.7717    -6.9820    -2.4607 C.3     
  21 N21           -6.4494    -7.8109    -3.6292 N.3     
  22 C22           -5.0399    -8.2226    -3.6157 C.3     
  23 C23           -4.1444    -6.9833    -3.6801 C.3     
  24 H24           -7.0598    -8.6125    -3.6833 H       
  25 O25            0.1983    -2.9344     1.9844 O.2     
  26 N26            2.4308    -3.3890     1.8367 N.am    
  27 C27            3.0276    -2.3561    -0.1117 C.ar    
  28 C28            3.4818    -3.1148     0.9600 C.ar    
  29 C29            3.8872    -1.9610    -1.1118 C.ar    
  30 C30            5.2235    -2.3204    -1.0564 C.ar    
  31 C31            5.6892    -3.0770     0.0072 C.ar    
  32 C32            4.8267    -3.4737     1.0112 C.ar    
  33 Cl33           6.3114    -1.8252    -2.3153 Cl      
  34 F34            6.9925    -3.4283     0.0626 F       
  35 C35            2.3052    -5.9587     2.8141 C.ar    
  36 C36            3.3583    -6.7643     2.4219 C.ar    
  37 C37            1.0253    -6.4768     2.8872 C.ar    
  38 C38            0.7958    -7.8012     2.5683 C.ar    
  39 C39            1.8507    -8.6115     2.1745 C.ar    
  40 C40            3.1339    -8.0892     2.1015 C.ar    
  41 O41            1.6276    -9.9148     1.8607 O.3     
  42 H42            4.3570    -6.3572     2.3656 H       
  43 C43            2.7606   -10.6897     1.4634 C.3     
  44 S44            2.5958    -4.2710     3.2285 S.o2    
  45 O45            3.9638    -4.1793     3.6018 O.2     
  46 O46            1.5294    -3.8779     4.0815 O.2     
  47 O47            1.6773    -0.3386    -2.0595 O.3     
  48 C48            2.1665    -0.1661    -4.4199 C.3     
  49 C49            1.6323     0.5500    -3.1778 C.3     
  50 H50            0.8232    -0.7584     2.3553 H       
  51 H51            0.3424     1.6769     2.4969 H       
  52 H52            0.5147     3.0603     0.4707 H       
  53 H53            1.0439    -2.3126    -1.9672 H       
  54 H54            0.8893    -3.8256    -1.0424 H       
  55 H55           -3.2130    -2.0177    -0.5908 H       
  56 H56           -3.3951    -2.0563    -2.3636 H       
  57 H57           -3.6423    -4.4245    -0.4517 H       
  58 H58           -4.9615    -3.6575    -1.3691 H       
  59 H59           -3.8296    -4.2829    -3.4953 H       
  60 H60           -1.8701    -5.6937    -1.6274 H       
  61 H61           -1.8992    -5.8506    -3.4008 H       
  62 H62           -1.4386    -3.4556    -3.6662 H       
  63 H63           -0.2087    -4.1625    -2.5869 H       
  64 H64           -4.2081    -6.6105    -1.5569 H       
  65 H65           -6.1560    -5.0979    -1.6150 H       
  66 H66           -6.1541    -5.1409    -3.3951 H       
  67 H67           -6.5551    -7.5392    -1.5493 H       
  68 H68           -7.8292    -6.7188    -2.4826 H       
  69 H69           -4.8314    -8.7740    -2.6989 H       
  70 H70           -4.8397    -8.8605    -4.4765 H       
  71 H71           -4.3426    -6.4387    -4.6033 H       
  72 H72           -3.0983    -7.2884    -3.6543 H       
  73 H73            3.5198    -1.3718    -1.9389 H       
  74 H74            5.1962    -4.0630     1.8375 H       
  75 H75            0.2045    -5.8456     3.1942 H       
  76 H76           -0.2040    -8.2055     2.6259 H       
  77 H77            3.9568    -8.7181     1.7956 H       
  78 H78            3.2097   -10.2471     0.5743 H       
  79 H79            3.4923   -10.7041     2.2712 H       
  80 H80            2.4441   -11.7089     1.2416 H       
  81 H81            3.1641    -0.5543    -4.2146 H       
  82 H82            1.5018    -0.9905    -4.6780 H       
  83 H83            2.2142     0.5364    -5.2519 H       
  84 H84            0.6027     0.8619    -3.3529 H       
  85 H85            2.2471     1.4259    -2.9708 H       
@<TRIPOS>BOND
   1    1    2 ar
   2    1    6 ar
   3    2    3 ar
   4    2   47 1
   5    3    4 ar
   6    3    7 1
   7    4    5 ar
   8    4   50 1
   9    5    6 ar
  10    5   51 1
  11    6   52 1
  12    7    8 1
  13    7    9 1
  14    7   27 1
  15    8   25 2
  16    8   26 am
  17    9   10 1
  18    9   53 1
  19    9   54 1
  20   10   11 am
  21   10   12 2
  22   11   13 1
  23   11   17 1
  24   13   14 1
  25   13   55 1
  26   13   56 1
  27   14   15 1
  28   14   57 1
  29   14   58 1
  30   15   16 1
  31   15   18 1
  32   15   59 1
  33   16   17 1
  34   16   60 1
  35   16   61 1
  36   17   62 1
  37   17   63 1
  38   18   19 1
  39   18   23 1
  40   18   64 1
  41   19   20 1
  42   19   65 1
  43   19   66 1
  44   20   21 1
  45   20   67 1
  46   20   68 1
  47   21   22 1
  48   21   24 1
  49   22   23 1
  50   22   69 1
  51   22   70 1
  52   23   71 1
  53   23   72 1
  54   26   44 am
  55   26   28 1
  56   27   28 ar
  57   27   29 ar
  58   28   32 ar
  59   29   30 ar
  60   29   73 1
  61   30   31 ar
  62   30   33 1
  63   31   32 ar
  64   31   34 1
  65   32   74 1
  66   35   36 ar
  67   35   37 ar
  68   35   44 1
  69   36   42 1
  70   36   40 ar
  71   37   38 ar
  72   37   75 1
  73   38   39 ar
  74   38   76 1
  75   39   40 ar
  76   39   41 1
  77   40   77 1
  78   41   43 1
  79   43   78 1
  80   43   79 1
  81   43   80 1
  82   44   45 2
  83   44   46 2
  84   47   49 1
  85   48   49 1
  86   48   81 1
  87   48   82 1
  88   48   83 1
  89   49   84 1
  90   49   85 1

#	End of record

