#	Name: ASD01913016
#	Creating user name:	WinNT
#	Creation time:	15. 06. 2019 20:00

#	Modifying user name:	WinNT
#	Modification time:	15. 06. 2019 20:00

#	Program:	/corina/corina34_cracker 3.40 0067  02.08.2006

@<TRIPOS>MOLECULE
ASD01913016
  59   63    0    0    0
SMALL
NO_CHARGES


@<TRIPOS>ATOM
   1 C1            -0.0184     1.5028     0.0103 C.3     
   2 C2             0.0021    -0.0041     0.0020 C.2     
   3 N3            -1.0793    -0.8128     0.0080 N.pl3   
   4 C4             1.1054    -0.7833    -0.0186 C.2     
   5 C5             0.6846    -2.1274    -0.0194 C.2     
   6 N6            -0.6315    -2.1399    -0.0034 N.2     
   7 C7             1.5689    -3.3192    -0.0394 C.ar    
   8 C8             2.9513    -3.1651     0.0454 C.ar    
   9 C9             1.0190    -4.5955    -0.1371 C.ar    
  10 C10            1.8449    -5.7010    -0.1549 C.ar    
  11 C11            3.2188    -5.5430    -0.0756 C.ar    
  12 C12            3.7696    -4.2756     0.0270 C.ar    
  13 C13           -2.4781    -0.3776     0.0244 C.3     
  14 C14           -2.9718    -0.2201    -1.3907 C.2     
  15 N15           -4.2395     0.1749    -1.6221 N.am    
  16 O16           -2.2285    -0.4488    -2.3213 O.2     
  17 C17           -4.7415     0.3349    -2.9952 C.3     
  18 C18           -6.0563    -0.4413    -3.1264 C.3     
  19 N19           -6.9833    -0.0097    -2.0718 N.3     
  20 C20           -6.4557    -0.3236    -0.7372 C.3     
  21 C21           -5.1592     0.4516    -0.5082 C.3     
  22 C22           -8.2363    -0.5684    -2.2537 C.ar    
  23 C23           -9.2837    -0.2916    -1.3590 C.ar    
  24 C24            1.4158     3.4233     0.0069 C.3     
  25 O25            1.3223     1.9974     0.0002 O.3     
  26 C26          -10.5339    -0.8879    -1.5961 C.ar    
  27 N27          -10.6798    -1.6851    -2.6493 N.ar    
  28 C28           -9.6697    -1.9156    -3.4614 C.ar    
  29 N29           -8.4784    -1.3749    -3.2820 N.ar    
  30 C30            1.2512    -7.0821    -0.2601 C.3     
  31 F31            4.0237    -6.6278    -0.0934 F       
  32 N32           -9.4066     0.4613    -0.2394 N.2     
  33 C33          -10.6226     0.3674     0.2145 C.2     
  34 N34          -11.3572    -0.4539    -0.5881 N.pl3   
  35 H35           -0.5455     1.8639    -0.8728 H       
  36 H36           -0.5286     1.8543     0.9071 H       
  37 H37            2.1283    -0.4371    -0.0326 H       
  38 H38            3.3814    -2.1776     0.1251 H       
  39 H39           -0.0521    -4.7196    -0.1986 H       
  40 H40            4.8413    -4.1568     0.0881 H       
  41 H41           -3.0843    -1.1225     0.5399 H       
  42 H42           -2.5555     0.5771     0.5446 H       
  43 H43           -4.9178     1.3909    -3.1999 H       
  44 H44           -4.0108    -0.0606    -3.7007 H       
  45 H45           -6.4990    -0.2445    -4.1028 H       
  46 H46           -5.8602    -1.5086    -3.0239 H       
  47 H47           -7.1882    -0.0415     0.0191 H       
  48 H48           -6.2541    -1.3926    -0.6680 H       
  49 H49           -4.7049     0.1359     0.4309 H       
  50 H50           -5.3725     1.5199    -0.4740 H       
  51 H51            0.9353     3.8147     0.9036 H       
  52 H52            2.4650     3.7187    -0.0015 H       
  53 H53            0.9183     3.8242    -0.8762 H       
  54 H54           -9.8220    -2.5685    -4.3081 H       
  55 H55            1.1604    -7.3596    -1.3103 H       
  56 H56            1.8987    -7.7957     0.2496 H       
  57 H57            0.2652    -7.0901     0.2044 H       
  58 H58          -10.9949     0.8665     1.0969 H       
  59 H59          -12.2907    -0.6885    -0.4684 H       
@<TRIPOS>BOND
   1    1    2 1
   2    1   25 1
   3    1   35 1
   4    1   36 1
   5    2    3 1
   6    2    4 2
   7    3   13 1
   8    3    6 1
   9    4    5 1
  10    4   37 1
  11    5    6 2
  12    5    7 1
  13    7    8 ar
  14    7    9 ar
  15    8   12 ar
  16    8   38 1
  17    9   10 ar
  18    9   39 1
  19   10   11 ar
  20   10   30 1
  21   11   12 ar
  22   11   31 1
  23   12   40 1
  24   13   14 1
  25   13   41 1
  26   13   42 1
  27   14   15 am
  28   14   16 2
  29   15   17 1
  30   15   21 1
  31   17   18 1
  32   17   43 1
  33   17   44 1
  34   18   19 1
  35   18   45 1
  36   18   46 1
  37   19   20 1
  38   19   22 1
  39   20   21 1
  40   20   47 1
  41   20   48 1
  42   21   49 1
  43   21   50 1
  44   22   23 ar
  45   22   29 ar
  46   23   26 ar
  47   23   32 1
  48   24   25 1
  49   24   51 1
  50   24   52 1
  51   24   53 1
  52   26   27 ar
  53   26   34 1
  54   27   28 ar
  55   28   29 ar
  56   28   54 1
  57   30   55 1
  58   30   56 1
  59   30   57 1
  60   32   33 2
  61   33   34 1
  62   33   58 1
  63   34   59 1

#	End of record

