#	Name: ASD02198183
#	Creating user name:	WinNT
#	Creation time:	15. 06. 2019 20:18

#	Modifying user name:	WinNT
#	Modification time:	15. 06. 2019 20:18

#	Program:	/corina/corina34_cracker 3.40 0067  02.08.2006

@<TRIPOS>MOLECULE
ASD02198183
  36   38    0    0    0
SMALL
NO_CHARGES


@<TRIPOS>ATOM
   1 C1            -0.0166     1.3751     0.0096 C.2     
   2 C2             0.0021    -0.0041     0.0020 C.2     
   3 C3            -1.1880    -0.8006     0.0087 C.1     
   4 S4             1.5672     2.0058    -0.0021 S.3     
   5 C5             2.2776     0.3997    -0.0175 C.2     
   6 C6             1.2818    -0.5523    -0.0131 C.2     
   7 C7             3.6483     0.1279    -0.0325 C.2     
   8 C8             4.6412     1.2616    -0.0358 C.3     
   9 O9             4.0399    -1.0237    -0.0428 O.2     
  10 N10            1.5283    -1.9147    -0.0232 N.pl3   
  11 N11           -1.1595     2.1389     0.0194 N.pl3   
  12 N12           -2.1320    -1.4324     0.0139 N.1     
  13 C13           -1.0636     3.6008     0.0268 C.3     
  14 C14           -2.3394     4.2159    -0.5745 C.3     
  15 C15           -2.9738     5.0840     0.5317 C.3     
  16 C16           -1.7903     5.4287     1.4696 C.3     
  17 C17           -0.9671     4.1166     1.4775 C.3     
  18 C18            6.0375     0.9794     0.5225 C.3     
  19 C19            5.8365     1.1510    -0.9845 C.3     
  20 H20            4.2226     2.2537     0.1333 H       
  21 H21            2.4412    -2.2423    -0.0340 H       
  22 H22            0.7881    -2.5416    -0.0195 H       
  23 H23           -2.0295     1.7100     0.0213 H       
  24 H24           -0.1908     3.9203    -0.5426 H       
  25 H25           -2.0857     4.8346    -1.4353 H       
  26 H26           -3.0300     3.4267    -0.8719 H       
  27 H27           -3.4004     5.9923     0.1062 H       
  28 H28           -3.7352     4.5196     1.0700 H       
  29 H29           -1.2020     6.2513     1.0630 H       
  30 H30           -2.1479     5.6663     2.4715 H       
  31 H31           -1.4045     3.3960     2.1685 H       
  32 H32            0.0707     4.3190     1.7422 H       
  33 H33            6.5376     1.7859     1.0586 H       
  34 H34            6.2379    -0.0263     0.8922 H       
  35 H35            5.9046     0.2583    -1.6063 H       
  36 H36            6.2044     2.0704    -1.4399 H       
@<TRIPOS>BOND
   1    1    2 2
   2    1    4 1
   3    1   11 1
   4    2    3 1
   5    2    6 1
   6    3   12 3
   7    4    5 1
   8    5    6 2
   9    5    7 1
  10    6   10 1
  11    7    8 1
  12    7    9 2
  13    8   18 1
  14    8   19 1
  15    8   20 1
  16   10   21 1
  17   10   22 1
  18   11   13 1
  19   11   23 1
  20   13   14 1
  21   13   17 1
  22   13   24 1
  23   14   15 1
  24   14   25 1
  25   14   26 1
  26   15   16 1
  27   15   27 1
  28   15   28 1
  29   16   17 1
  30   16   29 1
  31   16   30 1
  32   17   31 1
  33   17   32 1
  34   18   19 1
  35   18   33 1
  36   18   34 1
  37   19   35 1
  38   19   36 1

#	End of record

