#	Name: ASD01910596
#	Creating user name:	WinNT
#	Creation time:	15. 06. 2019 19:56

#	Modifying user name:	WinNT
#	Modification time:	15. 06. 2019 19:56

#	Program:	/corina/corina34_cracker 3.40 0067  02.08.2006

@<TRIPOS>MOLECULE
ASD01910596
  43   46    0    0    0
SMALL
NO_CHARGES


@<TRIPOS>ATOM
   1 C1            -0.6642     1.7782    -1.9677 C.ar    
   2 N2            -0.7322     0.4876    -1.7058 N.ar    
   3 C3             0.2649    -0.1657    -1.1417 C.ar    
   4 C4             1.4337     0.4837    -0.7985 C.ar    
   5 C5             1.5499     1.8535    -1.0581 C.ar    
   6 C6             0.4674     2.5058    -1.6581 C.ar    
   7 C7             2.7833     2.5920    -0.7073 C.2     
   8 N8             3.0142     3.8776    -0.9000 N.2     
   9 C9             4.2523     4.0954    -0.4300 C.2     
  10 N10            4.7087     2.9624     0.0163 N.2     
  11 O11            3.8820     2.0865    -0.1265 O.3     
  12 C12            4.9816     5.4141    -0.4211 C.3     
  13 C13            5.3250     5.7982     1.0199 C.3     
  14 C14            6.0367     7.1530     1.0328 C.3     
  15 C15            7.3411     7.0477     0.2365 C.3     
  16 N16            7.0349     6.5396    -1.1077 N.am    
  17 C17            6.2741     5.2890    -1.2339 C.3     
  18 C18            7.4442     7.2080    -2.2041 C.2     
  19 C19            8.1350     8.5061    -2.0628 C.ar    
  20 O20            7.2449     6.7427    -3.3094 O.2     
  21 C21            9.2205     8.6313    -1.1932 C.ar    
  22 C22            9.8618     9.8447    -1.0655 C.ar    
  23 C23            9.4309    10.9399    -1.7986 C.ar    
  24 C24            8.3533    10.8213    -2.6631 C.ar    
  25 C25            7.7085     9.6111    -2.8027 C.ar    
  26 F26           10.0629    12.1270    -1.6698 F       
  27 H27           -1.5035     2.2719    -2.4349 H       
  28 H28            0.1656    -1.2230    -0.9454 H       
  29 H29            2.2460    -0.0575    -0.3362 H       
  30 H30            0.5163     3.5624    -1.8758 H       
  31 H31            4.3474     6.1835    -0.8614 H       
  32 H32            4.4087     5.8638     1.6065 H       
  33 H33            5.9789     5.0404     1.4517 H       
  34 H34            5.3930     7.9063     0.5786 H       
  35 H35            6.2601     7.4368     2.0612 H       
  36 H36            7.8023     8.0322     0.1587 H       
  37 H37            8.0222     6.3616     0.7401 H       
  38 H38            6.8682     4.4596    -0.8502 H       
  39 H39            6.0312     5.1133    -2.2818 H       
  40 H40            9.5567     7.7789    -0.6215 H       
  41 H41           10.7011     9.9427    -0.3930 H       
  42 H42            8.0215    11.6776    -3.2315 H       
  43 H43            6.8695     9.5197    -3.4766 H       
@<TRIPOS>BOND
   1    1    2 ar
   2    1    6 ar
   3    1   27 1
   4    2    3 ar
   5    3    4 ar
   6    3   28 1
   7    4    5 ar
   8    4   29 1
   9    5    6 ar
  10    5    7 1
  11    6   30 1
  12    7    8 2
  13    7   11 1
  14    8    9 1
  15    9   10 2
  16    9   12 1
  17   10   11 1
  18   12   13 1
  19   12   17 1
  20   12   31 1
  21   13   14 1
  22   13   32 1
  23   13   33 1
  24   14   15 1
  25   14   34 1
  26   14   35 1
  27   15   16 1
  28   15   36 1
  29   15   37 1
  30   16   17 1
  31   16   18 am
  32   17   38 1
  33   17   39 1
  34   18   19 1
  35   18   20 2
  36   19   21 ar
  37   19   25 ar
  38   21   22 ar
  39   21   40 1
  40   22   23 ar
  41   22   41 1
  42   23   24 ar
  43   23   26 1
  44   24   25 ar
  45   24   42 1
  46   25   43 1

#	End of record

