#	Name: ASD09116123
#	Creating user name:	WinNT
#	Creation time:	15. 06. 2019 21:20

#	Modifying user name:	WinNT
#	Modification time:	15. 06. 2019 21:20

#	Program:	/corina/corina34_cracker 3.40 0067  02.08.2006

@<TRIPOS>MOLECULE
ASD09116123
  48   49    0    0    0
SMALL
NO_CHARGES


@<TRIPOS>ATOM
   1 C1            -1.0483    -0.4731     0.7380 C.2     
   2 N2             0.0021    -0.0041     0.0020 N.pl3   
   3 O3            -0.8584    -1.4718     1.6227 O.3     
   4 N4            -2.2471     0.0549     0.5870 N.2     
   5 C5             3.7038    -1.8912     0.2235 C.ar    
   6 C6             2.5531    -2.6277     0.3437 C.ar    
   7 C7             2.6278    -4.1258     0.5550 C.3     
   8 C8             3.1497    -4.3905     1.9694 C.3     
   9 C9             4.6653    -4.3805     1.9985 C.3     
  10 C10            5.2882    -3.0217     1.7461 C.3     
  11 C11            5.0544    -2.5726     0.3012 C.3     
  12 C12            1.3177    -2.0118     0.2721 C.ar    
  13 C13            1.2468    -0.6376     0.0770 C.ar    
  14 C14            2.4137     0.1055    -0.0438 C.ar    
  15 C15            3.6428    -0.5227     0.0247 C.ar    
  16 N16            5.1080    -4.8581     3.3107 N.am    
  17 C17            6.3263    -5.4179     3.4483 C.2     
  18 O18            7.0574    -5.5265     2.4839 O.2     
  19 O19            6.7331    -5.8569     4.6543 O.3     
  20 C20            8.0570    -6.4487     4.7282 C.3     
  21 C21            9.1011    -5.4190     4.2918 C.3     
  22 C22            8.3411    -6.8848     6.1670 C.3     
  23 C23            8.1237    -7.6660     3.8037 C.3     
  24 C24           -3.2893    -0.4105     1.3173 C.1     
  25 N25           -4.1630    -0.8007     1.9296 N.1     
  26 H26           -0.1151     0.7684    -0.5728 H       
  27 H27            1.6348    -4.5614     0.4435 H       
  28 H28            3.3079    -4.5652    -0.1747 H       
  29 H29            2.7735    -3.6183     2.6403 H       
  30 H30            2.7914    -5.3629     2.3072 H       
  31 H31            5.0302    -5.0742     1.2410 H       
  32 H32            4.8444    -2.2927     2.4241 H       
  33 H33            6.3603    -3.0786     1.9345 H       
  34 H34            5.0656    -3.4400    -0.3588 H       
  35 H35            5.8355    -1.8727     0.0044 H       
  36 H36            0.4135    -2.5947     0.3668 H       
  37 H37            2.3607     1.1735    -0.1956 H       
  38 H38            4.5519     0.0529    -0.0682 H       
  39 H39            4.5243    -4.7715     4.0806 H       
  40 H40            9.0535    -4.5518     4.9504 H       
  41 H41           10.0949    -5.8634     4.3472 H       
  42 H42            8.8987    -5.1084     3.2668 H       
  43 H43            7.5972    -7.6184     6.4779 H       
  44 H44            9.3349    -7.3291     6.2224 H       
  45 H45            8.2936    -6.0176     6.8256 H       
  46 H46            7.9213    -7.3554     2.7787 H       
  47 H47            9.1175    -8.1103     3.8592 H       
  48 H48            7.3798    -8.3996     4.1147 H       
@<TRIPOS>BOND
   1    1    2 1
   2    1    3 1
   3    1    4 2
   4    2   13 1
   5    2   26 1
   6    4   24 1
   7    5    6 ar
   8    5   11 1
   9    5   15 ar
  10    6    7 1
  11    6   12 ar
  12    7    8 1
  13    7   27 1
  14    7   28 1
  15    8    9 1
  16    8   29 1
  17    8   30 1
  18    9   10 1
  19    9   16 1
  20    9   31 1
  21   10   11 1
  22   10   32 1
  23   10   33 1
  24   11   34 1
  25   11   35 1
  26   12   13 ar
  27   12   36 1
  28   13   14 ar
  29   14   15 ar
  30   14   37 1
  31   15   38 1
  32   16   17 am
  33   16   39 1
  34   17   18 2
  35   17   19 1
  36   19   20 1
  37   20   21 1
  38   20   23 1
  39   20   22 1
  40   21   40 1
  41   21   41 1
  42   21   42 1
  43   22   43 1
  44   22   44 1
  45   22   45 1
  46   23   46 1
  47   23   47 1
  48   23   48 1
  49   24   25 3

#	End of record

