#	Name: ASD04660029
#	Creating user name:	WinNT
#	Creation time:	15. 06. 2019 20:52

#	Modifying user name:	WinNT
#	Modification time:	15. 06. 2019 20:52

#	Program:	/corina/corina34_cracker 3.40 0067  02.08.2006

@<TRIPOS>MOLECULE
ASD04660029
  43   46    0    0    0
SMALL
NO_CHARGES


@<TRIPOS>ATOM
   1 N1             0.0010     1.8534     0.0970 N.am    
   2 C2            -0.1038     0.5120     0.2905 C.2     
   3 C3             1.2529    -0.0446     0.3517 C.ar    
   4 C4             2.0901     1.0681     0.1806 C.ar    
   5 C5             3.4841     1.0088     0.1703 C.ar    
   6 C6             4.1730     2.2193    -0.0122 C.ar    
   7 C7             3.4453     3.3680    -0.1667 C.ar    
   8 C8             2.0514     3.3979    -0.1518 C.ar    
   9 C9             1.3369     2.2274     0.0252 C.ar    
  10 C10            4.0747    -0.2547     0.3437 C.ar    
  11 C11            3.2658    -1.3467     0.5116 C.ar    
  12 C12            1.8733    -1.2701     0.5192 C.ar    
  13 O13           -1.1403    -0.1168     0.3947 O.2     
  14 S14            5.9344     2.2579    -0.0411 S.o2    
  15 O15            6.3436     1.2330    -0.9363 O.2     
  16 O16            6.3033     3.6210    -0.1993 O.2     
  17 N17            6.4593     1.8028     1.4621 N.am    
  18 C18            6.1360     2.6248     2.6309 C.3     
  19 C19            6.8329     3.9814     2.5089 C.3     
  20 F20            4.7517     2.8160     2.6979 F       
  21 C21            6.6080     1.9282     3.8811 C.ar    
  22 C22            5.9373     2.1202     5.0745 C.ar    
  23 C23            6.3703     1.4813     6.2213 C.ar    
  24 C24            7.4737     0.6499     6.1746 C.ar    
  25 C25            8.1439     0.4572     4.9810 C.ar    
  26 C26            7.7083     1.0927     3.8333 C.ar    
  27 N27            7.9379    -0.0335     7.4027 N.pl3   
  28 O28            7.3477     0.1367     8.4545 O.2     
  29 O29            8.9102    -0.7660     7.3616 O.2     
  30 H30           -0.7500     2.4620     0.0163 H       
  31 H31            3.9771     4.2975    -0.3067 H       
  32 H32            1.5299     4.3352    -0.2777 H       
  33 H33            5.1492    -0.3626     0.3441 H       
  34 H34            3.7283    -2.3135     0.6443 H       
  35 H35            1.2818    -2.1633     0.6560 H       
  36 H36            6.9810     0.9920     1.5688 H       
  37 H37            6.4005     4.5386     1.6778 H       
  38 H38            6.6977     4.5437     3.4328 H       
  39 H39            7.8970     3.8283     2.3291 H       
  40 H40            5.0752     2.7698     5.1109 H       
  41 H41            5.8467     1.6319     7.1538 H       
  42 H42            9.0062    -0.1920     4.9446 H       
  43 H43            8.2296     0.9392     2.9000 H       
@<TRIPOS>BOND
   1    1    2 am
   2    1    9 1
   3    1   30 1
   4    2    3 1
   5    2   13 2
   6    3    4 ar
   7    3   12 ar
   8    4    5 ar
   9    4    9 ar
  10    5    6 ar
  11    5   10 ar
  12    6    7 ar
  13    6   14 1
  14    7    8 ar
  15    7   31 1
  16    8    9 ar
  17    8   32 1
  18   10   11 ar
  19   10   33 1
  20   11   12 ar
  21   11   34 1
  22   12   35 1
  23   14   15 2
  24   14   16 2
  25   14   17 am
  26   17   18 1
  27   17   36 1
  28   18   19 1
  29   18   20 1
  30   18   21 1
  31   19   37 1
  32   19   38 1
  33   19   39 1
  34   21   22 ar
  35   21   26 ar
  36   22   23 ar
  37   22   40 1
  38   23   24 ar
  39   23   41 1
  40   24   25 ar
  41   24   27 1
  42   25   26 ar
  43   25   42 1
  44   26   43 1
  45   27   28 2
  46   27   29 2

#	End of record

