#	Name: ASD03731237
#	Creating user name:	WinNT
#	Creation time:	15. 06. 2019 20:45

#	Modifying user name:	WinNT
#	Modification time:	15. 06. 2019 20:45

#	Program:	/corina/corina34_cracker 3.40 0067  02.08.2006

@<TRIPOS>MOLECULE
ASD03731237
  64   70    0    0    0
SMALL
NO_CHARGES


@<TRIPOS>ATOM
   1 N1            -0.0162     1.3436     0.0094 N.am    
   2 C2            -0.1488     0.0026     0.0356 C.2     
   3 O3             0.8347    -0.7073    -0.0481 O.2     
   4 N4            -1.3717    -0.5514     0.1546 N.am    
   5 C5            -1.5159    -2.0090     0.1831 C.3     
   6 C6            -2.9954    -2.3725     0.3239 C.3     
   7 O7             1.4066    -7.7656     2.1210 O.3     
   8 C8             1.6939    -9.1574     2.3520 C.3     
   9 O9             0.5007    -9.6521     2.9881 O.3     
  10 C10           -0.5101    -8.8475     2.5457 C.ar    
  11 C11            0.0475    -7.6872     2.0136 C.ar    
  12 C12           -1.8833    -9.0145     2.5533 C.ar    
  13 C13           -2.7164    -8.0285     2.0334 C.ar    
  14 C14           -2.1481    -6.8701     1.5121 C.ar    
  15 C15           -0.7790    -6.7033     1.4975 C.ar    
  16 O16           -4.0761    -8.0017     1.9293 O.3     
  17 C17           -3.2891    -5.9980     1.0612 C.3     
  18 C18           -4.5106    -6.6426     1.7303 C.3     
  19 N19           -3.1395    -3.8301     0.3524 N.am    
  20 C20           -3.1109    -4.5672     1.4806 C.2     
  21 C21           -3.4237    -5.9609    -0.4323 C.ar    
  22 C22           -3.6087    -6.9277    -1.3952 C.ar    
  23 C23           -3.6979    -6.5697    -2.7285 C.ar    
  24 C24           -3.6003    -5.2387    -3.0918 C.ar    
  25 C25           -3.4141    -4.2667    -2.1311 C.ar    
  26 C26           -3.3235    -4.6180    -0.7865 C.ar    
  27 O27           -2.9694    -4.1555     2.6127 O.2     
  28 C28            1.4880     3.1104    -0.6919 C.ar    
  29 C29            1.2570     1.9199     0.0069 C.ar    
  30 C30            2.2966     1.3147     0.6972 C.ar    
  31 C31            3.5545     1.8866     0.6943 C.ar    
  32 C32            3.7851     3.0637     0.0045 C.ar    
  33 C33            2.7600     3.6770    -0.6874 C.ar    
  34 C34            0.3846     3.7624    -1.4382 C.ar    
  35 C35            0.1243     5.1197    -1.2578 C.ar    
  36 C36           -0.9038     5.7210    -1.9549 C.ar    
  37 C37           -1.6755     4.9793    -2.8311 C.ar    
  38 C38           -1.4217     3.6319    -3.0141 C.ar    
  39 C39           -0.3923     3.0213    -2.3270 C.ar    
  40 H40           -0.8044     1.9086    -0.0117 H       
  41 H41           -2.1563     0.0149     0.2215 H       
  42 H42           -1.1246    -2.4310    -0.7426 H       
  43 H43           -0.9604    -2.4126     1.0297 H       
  44 H44           -3.3867    -1.9506     1.2496 H       
  45 H45           -3.5508    -1.9690    -0.5226 H       
  46 H46            1.8673    -9.6744     1.4083 H       
  47 H47            2.5536    -9.2663     3.0132 H       
  48 H48           -2.3118    -9.9162     2.9655 H       
  49 H49           -0.3505    -5.8029     1.0828 H       
  50 H50           -5.3776    -6.6061     1.0707 H       
  51 H51           -4.7281    -6.1621     2.6842 H       
  52 H52           -3.6844    -7.9664    -1.1092 H       
  53 H53           -3.8439    -7.3276    -3.4839 H       
  54 H54           -3.6699    -4.9593    -4.1327 H       
  55 H55           -3.3383    -3.2296    -2.4227 H       
  56 H56            2.1227     0.3960     1.2377 H       
  57 H57            4.3616     1.4127     1.2333 H       
  58 H58            4.7710     3.5047     0.0078 H       
  59 H59            2.9445     4.5954    -1.2250 H       
  60 H60            0.7258     5.6996    -0.5734 H       
  61 H61           -1.1064     6.7727    -1.8158 H       
  62 H62           -2.4795     5.4539    -3.3740 H       
  63 H63           -2.0277     3.0575    -3.6992 H       
  64 H64           -0.1921     1.9703    -2.4741 H       
@<TRIPOS>BOND
   1    1    2 am
   2    1   29 1
   3    1   40 1
   4    2    3 2
   5    2    4 am
   6    4    5 1
   7    4   41 1
   8    5    6 1
   9    5   42 1
  10    5   43 1
  11    6   19 1
  12    6   44 1
  13    6   45 1
  14    7    8 1
  15    7   11 1
  16    8    9 1
  17    8   46 1
  18    8   47 1
  19    9   10 1
  20   10   11 ar
  21   10   12 ar
  22   11   15 ar
  23   12   13 ar
  24   12   48 1
  25   13   14 ar
  26   13   16 1
  27   14   15 ar
  28   14   17 1
  29   15   49 1
  30   16   18 1
  31   17   18 1
  32   17   20 1
  33   17   21 1
  34   18   50 1
  35   18   51 1
  36   19   20 am
  37   19   26 1
  38   20   27 2
  39   21   22 ar
  40   21   26 ar
  41   22   23 ar
  42   22   52 1
  43   23   24 ar
  44   23   53 1
  45   24   25 ar
  46   24   54 1
  47   25   26 ar
  48   25   55 1
  49   28   29 ar
  50   28   33 ar
  51   28   34 1
  52   29   30 ar
  53   30   31 ar
  54   30   56 1
  55   31   32 ar
  56   31   57 1
  57   32   33 ar
  58   32   58 1
  59   33   59 1
  60   34   35 ar
  61   34   39 ar
  62   35   36 ar
  63   35   60 1
  64   36   37 ar
  65   36   61 1
  66   37   38 ar
  67   37   62 1
  68   38   39 ar
  69   38   63 1
  70   39   64 1

#	End of record

