#	Name: ASD08830001
#	Creating user name:	WinNT
#	Creation time:	15. 06. 2019 21:19

#	Modifying user name:	WinNT
#	Modification time:	15. 06. 2019 21:19

#	Program:	/corina/corina34_cracker 3.40 0067  02.08.2006

@<TRIPOS>MOLECULE
ASD08830001
  39   41    0    0    0
SMALL
NO_CHARGES


@<TRIPOS>ATOM
   1 C1            -0.0168     1.3889     0.0097 C.ar    
   2 C2             0.0021    -0.0041     0.0020 C.ar    
   3 C3             1.1787    -0.6899    -0.0125 C.ar    
   4 C4             2.3943     0.0128    -0.0203 C.ar    
   5 C5             2.3756     1.4312    -0.0130 C.ar    
   6 C6             1.1410     2.1048     0.0025 C.ar    
   7 C7             3.6260    -0.6687    -0.0347 C.ar    
   8 C8             4.7888     0.0293    -0.0413 C.ar    
   9 C9             4.7851     1.4384    -0.0343 C.ar    
  10 C10            3.5866     2.1385    -0.0204 C.ar    
  11 C11            6.0596     2.1722    -0.0411 C.2     
  12 C12            7.3637     1.4171    -0.0556 C.3     
  13 C13            8.5278     2.4100    -0.0603 C.3     
  14 N14            9.7991     1.6740    -0.0745 N.3     
  15 C15           10.9303     2.5809    -0.3177 C.3     
  16 C16            9.7723     0.5953    -1.0730 C.3     
  17 C17           11.0902    -0.1814    -1.0127 C.3     
  18 O18           12.1798     0.7214    -1.2202 O.3     
  19 C19           12.2366     1.7843    -0.2650 C.3     
  20 O20            6.0611     3.3849    -0.0351 O.2     
  21 H21           -0.9637     1.9083     0.0170 H       
  22 H22           -0.9306    -0.5485     0.0080 H       
  23 H23            1.1767    -1.7699    -0.0175 H       
  24 H24            1.1117     3.1844     0.0078 H       
  25 H25            3.6450    -1.7486    -0.0403 H       
  26 H26            5.7294    -0.5014    -0.0516 H       
  27 H27            3.5867     3.2185    -0.0151 H       
  28 H28            7.4281     0.7860     0.8307 H       
  29 H29            7.4134     0.7948    -0.9492 H       
  30 H30            8.4635     3.0411    -0.9467 H       
  31 H31            8.4782     3.0323     0.8332 H       
  32 H32           10.8236     3.0405    -1.3003 H       
  33 H33           10.9459     3.3567     0.4479 H       
  34 H34            8.9426    -0.0784    -0.8588 H       
  35 H35            9.6471     1.0231    -2.0677 H       
  36 H36           11.1899    -0.6538    -0.0355 H       
  37 H37           11.0980    -0.9459    -1.7897 H       
  38 H38           13.0735     2.4415    -0.5011 H       
  39 H39           12.3697     1.3691     0.7340 H       
@<TRIPOS>BOND
   1    1    2 ar
   2    1    6 ar
   3    1   21 1
   4    2    3 ar
   5    2   22 1
   6    3    4 ar
   7    3   23 1
   8    4    5 ar
   9    4    7 ar
  10    5    6 ar
  11    5   10 ar
  12    6   24 1
  13    7    8 ar
  14    7   25 1
  15    8    9 ar
  16    8   26 1
  17    9   10 ar
  18    9   11 1
  19   10   27 1
  20   11   12 1
  21   11   20 2
  22   12   13 1
  23   12   28 1
  24   12   29 1
  25   13   14 1
  26   13   30 1
  27   13   31 1
  28   14   15 1
  29   14   16 1
  30   15   19 1
  31   15   32 1
  32   15   33 1
  33   16   17 1
  34   16   34 1
  35   16   35 1
  36   17   18 1
  37   17   36 1
  38   17   37 1
  39   18   19 1
  40   19   38 1
  41   19   39 1

#	End of record

