#	Name: ASD03930124
#	Creating user name:	WinNT
#	Creation time:	15. 06. 2019 20:47

#	Modifying user name:	WinNT
#	Modification time:	15. 06. 2019 20:47

#	Program:	/corina/corina34_cracker 3.40 0067  02.08.2006

@<TRIPOS>MOLECULE
ASD03930124
  52   54    0    0    0
SMALL
NO_CHARGES


@<TRIPOS>ATOM
   1 C1             0.3192     1.4366    -0.3171 C.ar    
   2 C2             0.2690     0.0792    -0.0620 C.ar    
   3 C3             1.4381    -0.6268     0.1466 C.ar    
   4 C4             2.6608     0.0212     0.1014 C.ar    
   5 C5             2.7109     1.3791    -0.1538 C.ar    
   6 C6             1.5383     2.0848    -0.3630 C.ar    
   7 C7             4.0631    -0.5155     0.2926 C.3     
   8 C8             4.9383     0.7273     0.5607 C.3     
   9 C9             4.1504     1.8473    -0.1515 C.3     
  10 N10            6.2674     0.5664    -0.0341 N.am    
  11 C11           -1.0597    -0.6301    -0.0110 C.3     
  12 C12           -1.4726    -1.0242    -1.4057 C.2     
  13 N13           -1.2693    -2.2254    -1.9861 N.pl3   
  14 N14           -1.8038    -2.1750    -3.2800 N.2     
  15 C15           -2.3100    -0.9832    -3.4670 C.2     
  16 C16           -2.1189    -0.2390    -2.2982 C.2     
  17 S17            7.6011     1.1632     0.7453 S.o2    
  18 O18            7.5043     0.6341     2.0606 O.2     
  19 O19            8.6867     0.8195    -0.1046 O.2     
  20 C20            7.3496     2.9596     0.7617 C.3     
  21 C21            8.5265     3.6329     1.4705 C.3     
  22 C22            7.2576     3.4749    -0.6759 C.3     
  23 C23           -0.6061    -3.3783    -1.3718 C.3     
  24 C24           -1.6581    -4.3049    -0.7590 C.3     
  25 C25           -2.9870    -0.4978    -4.7228 C.3     
  26 F26           -3.0978    -1.5556    -5.6316 F       
  27 F27           -4.2628    -0.0171    -4.4090 F       
  28 F28           -2.2289     0.5300    -5.2939 F       
  29 H29           -0.5935     1.9891    -0.4848 H       
  30 H30            1.3980    -1.6874     0.3459 H       
  31 H31            1.5767     3.1455    -0.5627 H       
  32 H32            4.0959    -1.1924     1.1463 H       
  33 H33            4.3987    -1.0268    -0.6096 H       
  34 H34            5.0125     0.9255     1.6300 H       
  35 H35            4.5094     1.9714    -1.1731 H       
  36 H36            4.2427     2.7835     0.3990 H       
  37 H37            6.3662     0.1103    -0.8844 H       
  38 H38           -0.9713    -1.5230     0.6078 H       
  39 H39           -1.8103     0.0350     0.4160 H       
  40 H40           -2.4271     0.7838    -2.1386 H       
  41 H41            6.4255     3.1923     1.2909 H       
  42 H42            9.4506     3.4002     0.9414 H       
  43 H43            8.3754     4.7124     1.4804 H       
  44 H44            8.5920     3.2658     2.4948 H       
  45 H45            6.3697     3.0613    -1.1541 H       
  46 H46            7.1929     4.5630    -0.6685 H       
  47 H47            8.1449     3.1676    -1.2295 H       
  48 H48           -0.0425    -3.9204    -2.1311 H       
  49 H49            0.0731    -3.0338    -0.5920 H       
  50 H50           -2.2828    -4.7190    -1.5505 H       
  51 H51           -1.1618    -5.1159    -0.2260 H       
  52 H52           -2.2793    -3.7400    -0.0640 H       
@<TRIPOS>BOND
   1    1    2 ar
   2    1    6 ar
   3    1   29 1
   4    2    3 ar
   5    2   11 1
   6    3    4 ar
   7    3   30 1
   8    4    5 ar
   9    4    7 1
  10    5    6 ar
  11    5    9 1
  12    6   31 1
  13    7    8 1
  14    7   32 1
  15    7   33 1
  16    8    9 1
  17    8   10 1
  18    8   34 1
  19    9   35 1
  20    9   36 1
  21   10   17 am
  22   10   37 1
  23   11   12 1
  24   11   38 1
  25   11   39 1
  26   12   13 1
  27   12   16 2
  28   13   14 1
  29   13   23 1
  30   14   15 2
  31   15   16 1
  32   15   25 1
  33   16   40 1
  34   17   18 2
  35   17   19 2
  36   17   20 1
  37   20   21 1
  38   20   22 1
  39   20   41 1
  40   21   42 1
  41   21   43 1
  42   21   44 1
  43   22   45 1
  44   22   46 1
  45   22   47 1
  46   23   24 1
  47   23   48 1
  48   23   49 1
  49   24   50 1
  50   24   51 1
  51   24   52 1
  52   25   26 1
  53   25   27 1
  54   25   28 1

#	End of record

