#	Name: ASD02150006
#	Creating user name:	WinNT
#	Creation time:	15. 06. 2019 20:18

#	Modifying user name:	WinNT
#	Modification time:	15. 06. 2019 20:18

#	Program:	/corina/corina34_cracker 3.40 0067  02.08.2006

@<TRIPOS>MOLECULE
ASD02150006
  73   77    0    0    0
SMALL
NO_CHARGES


@<TRIPOS>ATOM
   1 C1             0.3858     0.8568     0.1795 C.ar    
   2 C2            -0.5265     0.9241     1.2205 C.ar    
   3 C3            -0.4510     1.9427     2.1648 C.ar    
   4 C4             0.5392     2.9026     2.0734 C.ar    
   5 C5             1.4652     2.8410     1.0235 C.ar    
   6 C6             1.3870     1.8103     0.0708 C.ar    
   7 O7             2.2826     1.7581    -0.9372 O.3     
   8 C8             2.5352     3.8424     0.8897 C.2     
   9 C9             3.4284     3.7015    -0.2039 C.2     
  10 C10            3.2654     2.6649    -1.0730 C.2     
  11 C11            4.2018     2.5330    -2.2044 C.ar    
  12 C12            5.5793     2.6329    -1.9891 C.ar    
  13 C13            6.4522     2.5086    -3.0529 C.ar    
  14 C14            5.9588     2.2842    -4.3369 C.ar    
  15 C15            4.5911     2.1851    -4.5510 C.ar    
  16 C16            3.7144     2.3022    -3.4939 C.ar    
  17 O17            4.4391     4.5950    -0.3836 O.3     
  18 C18            4.0687     5.9380    -0.7019 C.3     
  19 C19            5.3045     6.8389    -0.6307 C.3     
  20 O20            3.5243     5.9820    -2.0224 O.3     
  21 C21            3.0956     7.2817    -2.4338 C.3     
  22 C22            4.2922     8.2365    -2.4321 C.3     
  23 C23            4.9115     8.2641    -1.0314 C.3     
  24 O24            0.2180     7.5391    -5.5353 O.3     
  25 C25            0.6928     6.2643    -5.0974 C.3     
  26 O26            1.3237     6.4030    -3.8227 O.3     
  27 C27            2.5080     7.2024    -3.8442 C.3     
  28 C28           -0.7161     8.1515    -4.6440 C.3     
  29 C29           -1.9517     7.2578    -4.5090 C.3     
  30 C30           -1.5203     5.8751    -4.0108 C.3     
  31 C31           -0.4863     5.2948    -4.9807 C.3     
  32 O32           -1.5037    -0.0130     1.3194 O.3     
  33 O33            0.6138     3.8977     2.9933 O.3     
  34 O34            2.6497     4.7587     1.6881 O.2     
  35 O35            6.8189     2.1627    -5.3818 O.3     
  36 O36            7.7930     2.6056    -2.8471 O.3     
  37 O37            5.8169     6.8420     0.7033 O.3     
  38 O38            6.0732     9.0962    -1.0386 O.3     
  39 O39            3.8555     9.5500    -2.7872 O.3     
  40 O40           -2.8621     7.8397    -3.5738 O.3     
  41 O41           -2.6575     5.0118    -3.9519 O.3     
  42 O42           -1.0851     5.1144    -6.2655 O.3     
  43 C43           -1.1312     9.5158    -5.1983 C.3     
  44 H44            0.3198     0.0587    -0.5451 H       
  45 H45           -1.1682     1.9838     2.9713 H       
  46 H46            5.9603     2.8071    -0.9937 H       
  47 H47            4.2131     2.0115    -5.5477 H       
  48 H48            2.6509     2.2198    -3.6626 H       
  49 H49            3.3220     6.2879     0.0109 H       
  50 H50            6.0673     6.4656    -1.3140 H       
  51 H51            2.3362     7.6493    -1.7436 H       
  52 H52            5.0345     7.8915    -3.1518 H       
  53 H53            4.1852     8.6560    -0.3193 H       
  54 H54            1.4122     5.8769    -5.8188 H       
  55 H55            2.2628     8.2057    -4.1926 H       
  56 H56            3.2379     6.7525    -4.5172 H       
  57 H57           -0.2533     8.2819    -3.6658 H       
  58 H58           -2.4382     7.1598    -5.4796 H       
  59 H59           -1.0785     5.9665    -3.0186 H       
  60 H60           -0.1326     4.3348    -4.6046 H       
  61 H61           -1.2560    -0.7856     1.8457 H       
  62 H62            1.1664     3.6858     3.7580 H       
  63 H63            7.1101     1.2557    -5.5481 H       
  64 H64            8.2229     1.7619    -2.6511 H       
  65 H65            6.0816     5.9694     1.0250 H       
  66 H66            6.5209     9.1541    -0.1835 H       
  67 H67            4.5637    10.2083    -2.8060 H       
  68 H68           -3.1735     8.7204    -3.8238 H       
  69 H69           -2.4569     4.1175    -3.6437 H       
  70 H70           -0.4860     4.7493    -6.9309 H       
  71 H71           -1.5944     9.3849    -6.1763 H       
  72 H72           -1.8437     9.9827    -4.5183 H       
  73 H73           -0.2512    10.1516    -5.2953 H       
@<TRIPOS>BOND
   1    1    2 ar
   2    1    6 ar
   3    1   44 1
   4    2    3 ar
   5    2   32 1
   6    3    4 ar
   7    3   45 1
   8    4    5 ar
   9    4   33 1
  10    5    6 ar
  11    5    8 1
  12    6    7 1
  13    7   10 1
  14    8    9 1
  15    8   34 2
  16    9   10 2
  17    9   17 1
  18   10   11 1
  19   11   12 ar
  20   11   16 ar
  21   12   13 ar
  22   12   46 1
  23   13   14 ar
  24   13   36 1
  25   14   15 ar
  26   14   35 1
  27   15   16 ar
  28   15   47 1
  29   16   48 1
  30   17   18 1
  31   18   20 1
  32   18   19 1
  33   18   49 1
  34   19   23 1
  35   19   37 1
  36   19   50 1
  37   20   21 1
  38   21   22 1
  39   21   27 1
  40   21   51 1
  41   22   23 1
  42   22   39 1
  43   22   52 1
  44   23   38 1
  45   23   53 1
  46   24   25 1
  47   24   28 1
  48   25   26 1
  49   25   31 1
  50   25   54 1
  51   26   27 1
  52   27   55 1
  53   27   56 1
  54   28   29 1
  55   28   43 1
  56   28   57 1
  57   29   30 1
  58   29   40 1
  59   29   58 1
  60   30   31 1
  61   30   41 1
  62   30   59 1
  63   31   42 1
  64   31   60 1
  65   32   61 1
  66   33   62 1
  67   35   63 1
  68   36   64 1
  69   37   65 1
  70   38   66 1
  71   39   67 1
  72   40   68 1
  73   41   69 1
  74   42   70 1
  75   43   71 1
  76   43   72 1
  77   43   73 1

#	End of record

