#	Name: ASD01140140
#	Creating user name:	WinNT
#	Creation time:	15. 06. 2019 19:00

#	Modifying user name:	WinNT
#	Modification time:	15. 06. 2019 19:00

#	Program:	/corina/corina34_cracker 3.40 0067  02.08.2006

@<TRIPOS>MOLECULE
ASD01140140
  25   26    0    0    0
SMALL
NO_CHARGES


@<TRIPOS>ATOM
   1 C1            -0.0166     1.3760     0.0096 C.ar    
   2 C2             0.0021    -0.0041     0.0020 C.ar    
   3 C3             1.2194    -0.6816    -0.0132 C.ar    
   4 C4             2.4119     0.0389    -0.0207 C.ar    
   5 C5             2.3816     1.4188    -0.0130 C.ar    
   6 C6             1.1702     2.0863     0.0021 C.ar    
   7 C7             1.2458    -2.1654    -0.0210 C.ar    
   8 C8             0.0516    -2.8850    -0.0130 C.ar    
   9 C9             0.0730    -4.2665    -0.0202 C.ar    
  10 C10            1.2753    -4.9438    -0.0353 C.ar    
  11 C11            2.4789    -4.2344    -0.0434 C.ar    
  12 C12            2.4619    -2.8403    -0.0420 C.ar    
  13 C13            3.7660    -4.9595    -0.0586 C.2     
  14 O14            3.7802    -6.3065    -0.0646 O.3     
  15 O15            4.8115    -4.3410    -0.0656 O.2     
  16 H16           -0.9597     1.9022     0.0169 H       
  17 H17           -0.9252    -0.5577     0.0082 H       
  18 H18            3.3583    -0.4813    -0.0322 H       
  19 H19            3.3053     1.9783    -0.0185 H       
  20 H20            1.1510     3.1661     0.0077 H       
  21 H21           -0.8927    -2.3611    -0.0008 H       
  22 H22           -0.8552    -4.8186    -0.0136 H       
  23 H23            1.2859    -6.0237    -0.0405 H       
  24 H24            3.3892    -2.2867    -0.0482 H       
  25 H25            4.6464    -6.7363    -0.0746 H       
@<TRIPOS>BOND
   1    1    2 ar
   2    1    6 ar
   3    1   16 1
   4    2    3 ar
   5    2   17 1
   6    3    4 ar
   7    3    7 1
   8    4    5 ar
   9    4   18 1
  10    5    6 ar
  11    5   19 1
  12    6   20 1
  13    7    8 ar
  14    7   12 ar
  15    8    9 ar
  16    8   21 1
  17    9   10 ar
  18    9   22 1
  19   10   11 ar
  20   10   23 1
  21   11   12 ar
  22   11   13 1
  23   12   24 1
  24   13   14 1
  25   13   15 2
  26   14   25 1

#	End of record

