#	Name: ASD01890302
#	Creating user name:	WinNT
#	Creation time:	15. 06. 2019 19:50

#	Modifying user name:	WinNT
#	Modification time:	15. 06. 2019 19:50

#	Program:	/corina/corina34_cracker 3.40 0067  02.08.2006

@<TRIPOS>MOLECULE
ASD01890302
  32   34    0    0    0
SMALL
NO_CHARGES


@<TRIPOS>ATOM
   1 C1            -0.0171     1.4077     0.0098 C.2     
   2 C2             0.0021    -0.0041     0.0020 C.2     
   3 C3             1.1871    -0.6669    -0.0129 C.2     
   4 O4             1.0296     2.0312     0.0031 O.2     
   5 C5            -1.3085     2.1301     0.0198 C.ar    
   6 C6            -1.3309     3.5256     0.0275 C.ar    
   7 C7            -2.5382     4.1930     0.0369 C.ar    
   8 C8            -3.7252     3.4820     0.0392 C.ar    
   9 C9            -3.7099     2.0984     0.0316 C.ar    
  10 C10           -2.5094     1.4189     0.0159 C.ar    
  11 N11            0.5378    -4.2580    -0.0262 N.pl3   
  12 C12            0.1156    -2.9706    -0.0155 C.2     
  13 C13            1.2069    -2.1287    -0.0209 C.2     
  14 C14            2.3993    -2.9979    -0.0364 C.ar    
  15 C15            3.7704    -2.7555    -0.0476 C.ar    
  16 C16            4.6506    -3.8155    -0.0614 C.ar    
  17 C17            4.1757    -5.1190    -0.0640 C.ar    
  18 C18            2.8216    -5.3729    -0.0531 C.ar    
  19 C19            1.9167    -4.3159    -0.0391 C.ar    
  20 H20           -0.9258    -0.5567     0.0079 H       
  21 H21            2.1149    -0.1142    -0.0187 H       
  22 H22           -0.4051     4.0818     0.0265 H       
  23 H23           -2.5569     5.2728     0.0429 H       
  24 H24           -4.6677     4.0092     0.0473 H       
  25 H25           -4.6399     1.5492     0.0334 H       
  26 H26           -2.4988     0.3390     0.0051 H       
  27 H27           -0.0476    -5.0315    -0.0213 H       
  28 H28           -0.9166    -2.6531    -0.0047 H       
  29 H29            4.1421    -1.7415    -0.0459 H       
  30 H30            5.7147    -3.6307    -0.0704 H       
  31 H31            4.8742    -5.9426    -0.0752 H       
  32 H32            2.4628    -6.3915    -0.0556 H       
@<TRIPOS>BOND
   1    1    2 1
   2    1    4 2
   3    1    5 1
   4    2    3 2
   5    2   20 1
   6    3   13 1
   7    3   21 1
   8    5    6 ar
   9    5   10 ar
  10    6    7 ar
  11    6   22 1
  12    7    8 ar
  13    7   23 1
  14    8    9 ar
  15    8   24 1
  16    9   10 ar
  17    9   25 1
  18   10   26 1
  19   11   12 1
  20   11   19 1
  21   11   27 1
  22   12   13 2
  23   12   28 1
  24   13   14 1
  25   14   15 ar
  26   14   19 ar
  27   15   16 ar
  28   15   29 1
  29   16   17 ar
  30   16   30 1
  31   17   18 ar
  32   17   31 1
  33   18   19 ar
  34   18   32 1

#	End of record

