#	Name: ASD01410474
#	Creating user name:	WinNT
#	Creation time:	15. 06. 2019 19:17

#	Modifying user name:	WinNT
#	Modification time:	15. 06. 2019 19:17

#	Program:	/corina/corina34_cracker 3.40 0067  02.08.2006

@<TRIPOS>MOLECULE
ASD01410474
  49   52    0    0    0
SMALL
NO_CHARGES


@<TRIPOS>ATOM
   1 C1            -0.0168     1.3855     0.0097 C.ar    
   2 C2             0.0021    -0.0041     0.0020 C.ar    
   3 C3            -1.1863    -0.7125     0.0096 C.ar    
   4 C4            -2.4035    -0.0209     0.0249 C.ar    
   5 C5            -2.4214     1.3840     0.0326 C.ar    
   6 C6            -1.2194     2.0761     0.0306 C.ar    
   7 C7            -3.8109    -0.4481     0.0360 C.2     
   8 C8            -4.5658     0.7559     0.0497 C.2     
   9 O9            -3.7058     1.8019     0.0471 O.3     
  10 O10           -4.2385    -1.5909     0.0333 O.2     
  11 C11           -5.9248     0.8429     0.0631 C.2     
  12 C12           -6.5732     2.1530     0.0764 C.2     
  13 O13            1.1534     2.0736     0.0022 O.3     
  14 O14           -1.1721    -2.0693     0.0017 O.3     
  15 C15           -5.9516     3.3829     0.0710 C.2     
  16 C16           -8.0240     2.4224     0.0917 C.ar    
  17 C17           -8.1583     3.8193     0.1005 C.ar    
  18 N18           -6.8882     4.3632     0.0875 N.pl3   
  19 C19           -6.5946     5.7985     0.0914 C.3     
  20 C20           -9.1554     1.6104     0.0981 C.ar    
  21 C21          -10.4112     2.1879     0.1132 C.ar    
  22 C22          -10.5437     3.5732     0.1219 C.ar    
  23 C23           -9.4302     4.3837     0.1156 C.ar    
  24 C24           -6.5975     6.3157     1.5313 C.3     
  25 C25           -6.2938     8.3319     2.9753 C.3     
  26 C26           -6.2908     7.8147     1.5354 C.3     
  27 O27          -11.5197     1.4005     0.1190 O.3     
  28 C28          -12.7859     2.0628     0.1347 C.3     
  29 H29            0.9447    -0.5311    -0.0102 H       
  30 H30           -1.2200     3.1561     0.0368 H       
  31 H31           -6.5235    -0.0560     0.0640 H       
  32 H32            1.4840     2.2777    -0.8833 H       
  33 H33           -1.1594    -2.4676     0.8827 H       
  34 H34           -4.8834     3.5414     0.0564 H       
  35 H35           -5.6148     5.9701    -0.3543 H       
  36 H36           -7.3538     6.3263    -0.4858 H       
  37 H37           -9.0522     0.5354     0.0909 H       
  38 H38          -11.5284     4.0167     0.1333 H       
  39 H39           -9.5442     5.4576     0.1229 H       
  40 H40           -7.5773     6.1441     1.9770 H       
  41 H41           -5.8383     5.7879     2.1085 H       
  42 H42           -7.2736     8.1603     3.4210 H       
  43 H43           -5.5346     7.8041     3.5525 H       
  44 H44           -6.0753     9.3998     2.9783 H       
  45 H45           -5.3110     7.9863     1.0897 H       
  46 H46           -7.0500     8.3424     0.9582 H       
  47 H47          -13.5841     1.3206     0.1379 H       
  48 H48          -12.8613     2.6814     1.0290 H       
  49 H49          -12.8780     2.6916    -0.7508 H       
@<TRIPOS>BOND
   1    1    2 ar
   2    1   13 1
   3    1    6 ar
   4    2    3 ar
   5    2   29 1
   6    3    4 ar
   7    3   14 1
   8    4    5 ar
   9    4    7 1
  10    5    6 ar
  11    5    9 1
  12    6   30 1
  13    7    8 1
  14    7   10 2
  15    8    9 1
  16    8   11 2
  17   11   12 1
  18   11   31 1
  19   12   16 1
  20   12   15 2
  21   13   32 1
  22   14   33 1
  23   15   18 1
  24   15   34 1
  25   16   17 ar
  26   16   20 ar
  27   17   18 1
  28   17   23 ar
  29   18   19 1
  30   19   24 1
  31   19   35 1
  32   19   36 1
  33   20   21 ar
  34   20   37 1
  35   21   22 ar
  36   21   27 1
  37   22   23 ar
  38   22   38 1
  39   23   39 1
  40   24   26 1
  41   24   40 1
  42   24   41 1
  43   25   26 1
  44   25   42 1
  45   25   43 1
  46   25   44 1
  47   26   45 1
  48   26   46 1
  49   27   28 1
  50   28   47 1
  51   28   48 1
  52   28   49 1

#	End of record

