#	Name: ASD06170155
#	Creating user name:	WinNT
#	Creation time:	15. 06. 2019 21:05

#	Modifying user name:	WinNT
#	Modification time:	15. 06. 2019 21:05

#	Program:	/corina/corina34_cracker 3.40 0067  02.08.2006

@<TRIPOS>MOLECULE
ASD06170155
  72   76    0    0    0
SMALL
NO_CHARGES


@<TRIPOS>ATOM
   1 N1            -1.7874    -1.5747    -1.3148 N.am    
   2 C2            -0.8954    -1.8071    -0.1677 C.3     
   3 C3            -0.8782    -3.3098     0.1347 C.3     
   4 O4            -0.5721    -4.0276    -1.0632 O.3     
   5 C5            -1.5377    -3.8663    -2.1051 C.3     
   6 C6            -1.5886    -2.3920    -2.5222 C.3     
   7 C7            -2.7612    -0.6446    -1.2591 C.2     
   8 O8            -2.9701    -0.0445    -0.2227 O.2     
   9 N9            -3.5034    -0.3798    -2.3525 N.am    
  10 C10           -6.1411     1.8411    -3.2963 C.ar    
  11 N11           -5.1219     1.0093    -3.3689 N.ar    
  12 C12           -4.5787     0.4979    -2.2671 C.ar    
  13 C13           -5.1029     0.8537    -1.0281 C.ar    
  14 C14           -6.1781     1.7339    -0.9960 C.ar    
  15 N15           -6.6646     2.2015    -2.1424 N.ar    
  16 O16           -6.7234     2.1100     0.1864 O.3     
  17 C17           -7.8385     2.8883     0.1565 C.ar    
  18 C18           -9.0928     2.3010     0.0424 C.ar    
  19 C19          -10.2257     3.0923     0.0120 C.ar    
  20 C20          -10.1093     4.4737     0.0956 C.ar    
  21 C21           -8.8555     5.0588     0.2095 C.ar    
  22 C22           -7.7239     4.2670     0.2455 C.ar    
  23 C23          -12.4211     4.8065     0.5535 C.2     
  24 O24          -12.4561     3.7225     1.1055 O.2     
  25 N25          -11.2564     5.2764     0.0644 N.am    
  26 N26          -15.7591     6.2539     0.5536 N.pl3   
  27 N27          -15.0730     7.2757    -0.1096 N.am    
  28 C28          -13.7750     6.9231    -0.2155 C.2     
  29 C29          -13.6473     5.6023     0.4205 C.2     
  30 C30          -14.9080     5.2589     0.8681 C.2     
  31 C31          -17.1904     6.2667     0.8657 C.3     
  32 C32          -17.9643     5.5797    -0.2613 C.3     
  33 C33          -19.4591     5.5930     0.0646 C.3     
  34 C34          -15.6378     8.4639    -0.5845 C.ar    
  35 C35          -16.4083     9.2539     0.2588 C.ar    
  36 C36          -16.9641    10.4268    -0.2131 C.ar    
  37 C37          -16.7541    10.8150    -1.5236 C.ar    
  38 C38          -15.9878    10.0305    -2.3659 C.ar    
  39 C39          -15.4244     8.8593    -1.8986 C.ar    
  40 O40          -12.8849     7.5702    -0.7349 O.2     
  41 C41          -15.2700     3.9854     1.5880 C.3     
  42 F42           -9.2048     0.9571    -0.0393 F       
  43 H43            0.1120    -1.4702    -0.4119 H       
  44 H44           -1.2649    -1.2620     0.7009 H       
  45 H45           -0.1204    -3.5207     0.8892 H       
  46 H46           -1.8564    -3.6181     0.5039 H       
  47 H47           -1.2543    -4.4775    -2.9619 H       
  48 H48           -2.5182    -4.1766    -1.7440 H       
  49 H49           -2.4171    -2.2343    -3.2127 H       
  50 H50           -0.6510    -2.1141    -3.0034 H       
  51 H51           -3.2875    -0.8013    -3.1990 H       
  52 H52           -6.5566     2.2424    -4.2089 H       
  53 H53           -4.6852     0.4560    -0.1150 H       
  54 H54          -11.2008     2.6366    -0.0770 H       
  55 H55           -8.7649     6.1330     0.2745 H       
  56 H56           -6.7492     4.7226     0.3390 H       
  57 H57          -11.2127     6.1705    -0.3091 H       
  58 H58          -17.3630     5.7351     1.8015 H       
  59 H59          -17.5315     7.2972     0.9650 H       
  60 H60          -17.7917     6.1113    -1.1971 H       
  61 H61          -17.6232     4.5492    -0.3607 H       
  62 H62          -19.6317     5.0614     1.0004 H       
  63 H63          -19.8002     6.6235     0.1639 H       
  64 H64          -20.0104     5.1036    -0.7383 H       
  65 H65          -16.5730     8.9511     1.2823 H       
  66 H66          -17.5637    11.0414     0.4421 H       
  67 H67          -17.1899    11.7327    -1.8901 H       
  68 H68          -15.8260    10.3363    -3.3890 H       
  69 H69          -14.8223     8.2493    -2.5557 H       
  70 H70          -15.5543     3.2250     0.8606 H       
  71 H71          -14.4118     3.6361     2.1622 H       
  72 H72          -16.1056     4.1739     2.2620 H       
@<TRIPOS>BOND
   1    1    2 1
   2    1    6 1
   3    1    7 am
   4    2    3 1
   5    2   43 1
   6    2   44 1
   7    3    4 1
   8    3   45 1
   9    3   46 1
  10    4    5 1
  11    5    6 1
  12    5   47 1
  13    5   48 1
  14    6   49 1
  15    6   50 1
  16    7    8 2
  17    7    9 am
  18    9   12 1
  19    9   51 1
  20   10   11 ar
  21   10   15 ar
  22   10   52 1
  23   11   12 ar
  24   12   13 ar
  25   13   14 ar
  26   13   53 1
  27   14   15 ar
  28   14   16 1
  29   16   17 1
  30   17   18 ar
  31   17   22 ar
  32   18   19 ar
  33   18   42 1
  34   19   20 ar
  35   19   54 1
  36   20   21 ar
  37   20   25 1
  38   21   22 ar
  39   21   55 1
  40   22   56 1
  41   23   24 2
  42   23   25 am
  43   23   29 1
  44   25   57 1
  45   26   27 1
  46   26   30 1
  47   26   31 1
  48   27   28 am
  49   27   34 1
  50   28   29 1
  51   28   40 2
  52   29   30 2
  53   30   41 1
  54   31   32 1
  55   31   58 1
  56   31   59 1
  57   32   33 1
  58   32   60 1
  59   32   61 1
  60   33   62 1
  61   33   63 1
  62   33   64 1
  63   34   35 ar
  64   34   39 ar
  65   35   36 ar
  66   35   65 1
  67   36   37 ar
  68   36   66 1
  69   37   38 ar
  70   37   67 1
  71   38   39 ar
  72   38   68 1
  73   39   69 1
  74   41   70 1
  75   41   71 1
  76   41   72 1

#	End of record

