#	Name: ASD04881259
#	Creating user name:	WinNT
#	Creation time:	15. 06. 2019 20:53

#	Modifying user name:	WinNT
#	Modification time:	15. 06. 2019 20:53

#	Program:	/corina/corina34_cracker 3.40 0067  02.08.2006

@<TRIPOS>MOLECULE
ASD04881259
  80   84    0    0    0
SMALL
NO_CHARGES


@<TRIPOS>ATOM
   1 N1             1.4484     1.1656     1.9565 N.3     
   2 C2             2.0338     2.2763     1.1929 C.3     
   3 C3             2.9715     1.7164     0.1206 C.3     
   4 N4             2.2189     0.8136    -0.7616 N.3     
   5 C5             1.6334    -0.2971     0.0021 C.3     
   6 C6             0.6958     0.2628     1.0743 C.3     
   7 C7             3.0237     0.3396    -1.7944 C.ar    
   8 C8             3.3519    -1.0099    -1.8551 C.ar    
   9 C9             4.1476    -1.4831    -2.8749 C.ar    
  10 C10            4.6280    -0.6068    -3.8520 C.ar    
  11 C11            4.2996     0.7505    -3.7932 C.ar    
  12 C12            3.4957     1.2202    -2.7717 C.ar    
  13 N13            3.1591     2.5788    -2.7126 N.am    
  14 C14            4.0413     3.5102    -3.1258 C.2     
  15 C15            3.7320     4.9347    -2.9665 C.2     
  16 O16            5.0947     3.1690    -3.6311 O.2     
  17 O17            2.6070     5.4460    -2.4252 O.3     
  18 C18            2.6725     6.7836    -2.4447 C.2     
  19 C19            3.8467     7.1534    -3.0018 C.2     
  20 C20            4.5348     5.9762    -3.3348 C.2     
  21 C21            5.4812    -1.1137    -4.9436 C.2     
  22 O22            5.8987    -0.3506    -5.7933 O.2     
  23 N23            5.7977    -2.4226    -4.9992 N.am    
  24 C24            1.6110     7.7218    -1.9307 C.3     
  25 C25            0.6411     1.6411     2.9924 C.ar    
  26 C26           -0.5115     2.3606     2.7027 C.ar    
  27 C27           -1.3076     2.8288     3.7293 C.ar    
  28 C28           -0.9583     2.5825     5.0447 C.ar    
  29 C29            0.1881     1.8668     5.3365 C.ar    
  30 C30            0.9859     1.3907     4.3144 C.ar    
  31 C31            2.2319     0.6054     4.6333 C.3     
  32 C32            6.6449    -2.9259    -6.0832 C.3     
  33 C33            6.8494    -4.4326    -5.9130 C.3     
  34 C34            3.4344     1.5506     4.6723 C.3     
  35 C35            7.7341    -4.9583    -7.0452 C.3     
  36 N36            7.9300    -6.4010    -6.8822 N.am    
  37 C37            7.0550    -7.4263    -7.4628 C.3     
  38 C38            7.3732    -8.7255    -6.6900 C.3     
  39 C39            8.8218    -8.4640    -6.2166 C.3     
  40 C40            8.9373    -6.9558    -6.1863 C.2     
  41 O41            9.8104    -6.3373    -5.6152 O.2     
  42 H42            1.2383     2.8496     0.7169 H       
  43 H43            2.5963     2.9236     1.8657 H       
  44 H44            3.3845     2.5371    -0.4659 H       
  45 H45            3.7823     1.1660     0.5980 H       
  46 H46            1.0710    -0.9444    -0.6708 H       
  47 H47            2.4290    -0.8704     0.4781 H       
  48 H48            0.2827    -0.5579     1.6608 H       
  49 H49           -0.1150     0.8132     0.5970 H       
  50 H50            2.9824    -1.6888    -1.1008 H       
  51 H51            4.4008    -2.5320    -2.9193 H       
  52 H52            4.6694     1.4300    -4.5469 H       
  53 H53            2.2911     2.8492    -2.3744 H       
  54 H54            4.1923     8.1646    -3.1583 H       
  55 H55            5.5094     5.9074    -3.7952 H       
  56 H56            5.4646    -3.0313    -4.3214 H       
  57 H57            0.7750     7.1438    -1.5369 H       
  58 H58            2.0282     8.3434    -1.1384 H       
  59 H59            1.2621     8.3568    -2.7451 H       
  60 H60           -0.7844     2.5538     1.6758 H       
  61 H61           -2.2037     3.3881     3.5048 H       
  62 H62           -1.5823     2.9505     5.8457 H       
  63 H63            0.4579     1.6763     6.3648 H       
  64 H64            2.1183     0.1218     5.6035 H       
  65 H65            2.3901    -0.1524     3.8659 H       
  66 H66            6.1632    -2.7306    -7.0413 H       
  67 H67            7.6111    -2.4224    -6.0530 H       
  68 H68            7.3310    -4.6279    -4.9549 H       
  69 H69            5.8831    -4.9362    -5.9433 H       
  70 H70            3.6019     1.9666     3.6788 H       
  71 H71            3.2383     2.3591     5.3764 H       
  72 H72            4.3197     0.9993     4.9893 H       
  73 H73            7.2525    -4.7630    -8.0033 H       
  74 H74            8.7004    -4.4548    -7.0149 H       
  75 H75            6.0092    -7.1519    -7.3249 H       
  76 H76            7.2756    -7.5542    -8.5226 H       
  77 H77            6.7014    -8.8485    -5.8405 H       
  78 H78            7.3288    -9.5924    -7.3493 H       
  79 H79            8.9794    -8.8814    -5.2221 H       
  80 H80            9.5362    -8.8833    -6.9250 H       
@<TRIPOS>BOND
   1    1    2 1
   2    1    6 1
   3    1   25 1
   4    2    3 1
   5    2   42 1
   6    2   43 1
   7    3    4 1
   8    3   44 1
   9    3   45 1
  10    4    5 1
  11    4    7 1
  12    5    6 1
  13    5   46 1
  14    5   47 1
  15    6   48 1
  16    6   49 1
  17    7    8 ar
  18    7   12 ar
  19    8    9 ar
  20    8   50 1
  21    9   10 ar
  22    9   51 1
  23   10   11 ar
  24   10   21 1
  25   11   12 ar
  26   11   52 1
  27   12   13 1
  28   13   14 am
  29   13   53 1
  30   14   15 1
  31   14   16 2
  32   15   17 1
  33   15   20 2
  34   17   18 1
  35   18   19 2
  36   18   24 1
  37   19   20 1
  38   19   54 1
  39   20   55 1
  40   21   22 2
  41   21   23 am
  42   23   32 1
  43   23   56 1
  44   24   57 1
  45   24   58 1
  46   24   59 1
  47   25   26 ar
  48   25   30 ar
  49   26   27 ar
  50   26   60 1
  51   27   28 ar
  52   27   61 1
  53   28   29 ar
  54   28   62 1
  55   29   30 ar
  56   29   63 1
  57   30   31 1
  58   31   34 1
  59   31   64 1
  60   31   65 1
  61   32   33 1
  62   32   66 1
  63   32   67 1
  64   33   35 1
  65   33   68 1
  66   33   69 1
  67   34   70 1
  68   34   71 1
  69   34   72 1
  70   35   36 1
  71   35   73 1
  72   35   74 1
  73   36   37 1
  74   36   40 am
  75   37   38 1
  76   37   75 1
  77   37   76 1
  78   38   39 1
  79   38   77 1
  80   38   78 1
  81   39   40 1
  82   39   79 1
  83   39   80 1
  84   40   41 2

#	End of record

