#	Name: ASD04920002
#	Creating user name:	WinNT
#	Creation time:	15. 06. 2019 20:56

#	Modifying user name:	WinNT
#	Modification time:	15. 06. 2019 20:56

#	Program:	/corina/corina34_cracker 3.40 0067  02.08.2006

@<TRIPOS>MOLECULE
ASD04920002
  20   20    0    0    0
SMALL
NO_CHARGES


@<TRIPOS>ATOM
   1 C1            -0.0189     1.5406     0.0105 C.3     
   2 C2             0.0021    -0.0041     0.0020 C.3     
   3 N3             1.2905    -0.3814     0.5948 N.am    
   4 C4             2.1475     0.6541     0.6002 C.2     
   5 C5             1.4904     1.8764    -0.0021 C.3     
   6 O6             3.2822     0.6145     1.0266 O.2     
   7 C7             1.6025    -1.7153     1.1142 C.3     
   8 C8             2.1853    -2.5604     0.0110 C.2     
   9 N9             2.5499    -3.8340     0.2588 N.am    
  10 O10            2.3263    -2.0944    -1.0998 O.2     
  11 H11           -0.5124     1.9289    -0.8804 H       
  12 H12           -0.4952     1.9193     0.9148 H       
  13 H13           -0.8187    -0.3957     0.6029 H       
  14 H14           -0.0665    -0.3766    -1.0200 H       
  15 H15            1.8381     2.0322    -1.0234 H       
  16 H16            1.6904     2.7569     0.6085 H       
  17 H17            2.3246    -1.6293     1.9262 H       
  18 H18            0.6908    -2.1824     1.4868 H       
  19 H19            2.4372    -4.2067     1.1472 H       
  20 H20            2.9251    -4.3780    -0.4513 H       
@<TRIPOS>BOND
   1    1    2 1
   2    1    5 1
   3    1   11 1
   4    1   12 1
   5    2    3 1
   6    2   13 1
   7    2   14 1
   8    3    4 am
   9    3    7 1
  10    4    5 1
  11    4    6 2
  12    5   15 1
  13    5   16 1
  14    7    8 1
  15    7   17 1
  16    7   18 1
  17    8    9 am
  18    8   10 2
  19    9   19 1
  20    9   20 1

#	End of record

