#	Name: ASD01410847
#	Creating user name:	WinNT
#	Creation time:	15. 06. 2019 19:18

#	Modifying user name:	WinNT
#	Modification time:	15. 06. 2019 19:18

#	Program:	/corina/corina34_cracker 3.40 0067  02.08.2006

@<TRIPOS>MOLECULE
ASD01410847
 127  134    0    0    0
SMALL
NO_CHARGES


@<TRIPOS>ATOM
   1 C1             0.4115     2.5933     2.4148 C.3     
   2 C2             0.4988     1.1768     3.0290 C.3     
   3 N3             0.8442     1.4100     4.4465 N.am    
   4 C4             0.3443     2.7346     4.8345 C.3     
   5 C5            -0.2588     3.3853     3.5705 C.3     
   6 O6             1.7126     3.1089     2.1261 O.3     
   7 C7            -0.7180     2.5915     5.8938 C.2     
   8 O8            -1.0328     1.4900     6.2919 O.2     
   9 N9            -1.3181     3.6875     6.3988 N.am    
  10 C10            1.6597     0.4067     2.3897 C.3     
  11 N11            1.9075    -0.7903     3.2034 N.am    
  12 C12            2.1767    -0.6765     4.6351 C.3     
  13 C13            1.5363     0.5528     5.2158 C.2     
  14 O14            1.6464     0.7758     6.4029 O.2     
  15 C15            1.6254    -1.9128     5.3482 C.3     
  16 C16            1.7881    -1.7444     6.8602 C.3     
  17 C17            0.1424    -2.0777     5.0101 C.3     
  18 C18           -2.4284     3.5449     7.3438 C.3     
  19 C19           -3.6818     2.9223     6.7847 C.2     
  20 N20           -3.7758     2.6654     5.4650 N.am    
  21 O21           -4.6059     2.6525     7.5224 O.2     
  22 S22           -5.1962     2.0970     4.8313 S.o2    
  23 C23           -6.3760     3.4529     5.0767 C.3     
  24 C24           -2.0801     3.2435     8.8028 C.3     
  25 C25           -2.5935     4.6308     8.4089 C.3     
  26 C26           -7.8357     3.1968     4.6964 C.3     
  27 C27           -7.4325     3.2809     6.1700 C.3     
  28 O28           -4.9180     1.9223     3.4488 O.2     
  29 O29           -5.5302     0.9898     5.6570 O.2     
  30 C30           -3.0169     2.3473     9.5710 C.2     
  31 C31           -2.5780     1.2222    10.0786 C.2     
  32 C32            1.7933     4.0883     1.1915 C.ar    
  33 C33            3.0434     4.6361     0.8200 C.ar    
  34 C34            0.6666     4.5694     0.5779 C.ar    
  35 C35            0.7769     5.5817    -0.3852 C.ar    
  36 N36            1.9500     6.0904    -0.7221 N.ar    
  37 C37            3.0835     5.6576    -0.1610 C.ar    
  38 C38           -0.4461     6.0919    -1.0397 C.2     
  39 S39           -2.0868     5.5398    -0.7126 S.3     
  40 C40            4.3246     6.2069    -0.5272 C.ar    
  41 C41            5.4763     5.7418     0.0677 C.ar    
  42 C42            5.4245     4.7304     1.0310 C.ar    
  43 C43            4.2350     4.1850     1.4059 C.ar    
  44 Cl44           4.4051     7.4633    -1.7225 Cl      
  45 O45            6.6763     6.2719    -0.2860 O.3     
  46 C46            7.8346     5.7478     0.3664 C.3     
  47 N47           -0.4844     7.0258    -1.9468 N.2     
  48 C48           -1.6635     7.3527    -2.4178 C.2     
  49 C49           -2.7032     6.6826    -1.9046 C.2     
  50 C50           -1.8381     8.4178    -3.4695 C.3     
  51 C51           -1.8866     7.7657    -4.8527 C.3     
  52 C52           -3.1432     9.1752    -3.2166 C.3     
  53 C53            1.8859    -2.0069     2.6237 C.2     
  54 C54            9.0821     6.4618    -0.1577 C.3     
  55 N55            9.0305     7.8800     0.2219 N.3     
  56 C56           10.3118     8.5461    -0.0535 C.3     
  57 N57            1.7373    -2.1145     1.2885 N.am    
  58 O58            2.0005    -3.0072     3.3052 O.2     
  59 C59           10.1951    10.0311     0.3001 C.3     
  60 O60            9.8007    10.1606     1.6687 O.3     
  61 C61            8.5566     9.5238     1.9721 C.3     
  62 C62            8.6566     8.0337     1.6354 C.3     
  63 C63            1.8191    -3.4285     0.6459 C.3     
  64 C64            0.7314    -4.3425     1.2138 C.3     
  65 C65            1.6174    -3.2720    -0.8626 C.3     
  66 C66            3.1939    -4.0434     0.9156 C.3     
  67 H67           -0.2150     2.5954     1.5228 H       
  68 H68           -0.4467     0.6433     2.9325 H       
  69 H69            1.1653     3.3454     5.2100 H       
  70 H70            0.0050     4.4415     3.5175 H       
  71 H71           -1.3409     3.2558     3.5494 H       
  72 H72           -1.0148     4.5708     6.1366 H       
  73 H73            1.3935     0.1139     1.3741 H       
  74 H74            2.5522     1.0322     2.3722 H       
  75 H75            3.2540    -0.6258     4.7926 H       
  76 H76            2.1733    -2.7961     5.0200 H       
  77 H77            1.2402    -0.8611     7.1884 H       
  78 H78            1.3954    -2.6251     7.3682 H       
  79 H79            2.8447    -1.6269     7.1011 H       
  80 H80            0.0264    -2.1976     3.9330 H       
  81 H81           -0.2504    -2.9584     5.5181 H       
  82 H82           -0.4055    -1.1944     5.3383 H       
  83 H83           -3.0114     2.8133     4.8865 H       
  84 H84           -5.9812     4.4553     4.9112 H       
  85 H85           -1.0248     3.1514     9.0596 H       
  86 H86           -1.8758     5.4512     8.4069 H       
  87 H87           -3.6086     4.8947     8.7056 H       
  88 H88           -8.4013     4.0309     4.2811 H       
  89 H89           -8.0871     2.2136     4.2987 H       
  90 H90           -7.4186     2.3530     6.7417 H       
  91 H91           -7.7329     4.1702     6.7240 H       
  92 H92           -4.0502     2.6325     9.7031 H       
  93 H93           -1.5447     0.9370     9.9466 H       
  94 H94           -3.2493     0.5799    10.6292 H       
  95 H95           -0.3032     4.1697     0.8352 H       
  96 H96            6.3391     4.3795     1.4858 H       
  97 H97            4.2092     3.4040     2.1515 H       
  98 H98            7.7495     5.9071     1.4414 H       
  99 H99            7.9145     4.6800     0.1626 H       
 100 H100          -3.7402     6.8195    -2.1737 H       
 101 H101          -0.9999     9.1133    -3.4249 H       
 102 H102          -2.7247     7.0702    -4.8972 H       
 103 H103          -2.0129     8.5361    -5.6134 H       
 104 H104          -0.9568     7.2261    -5.0328 H       
 105 H105          -3.1086     9.6398    -2.2312 H       
 106 H106          -3.2695     9.9455    -3.9773 H       
 107 H107          -3.9813     8.4797    -3.2612 H       
 108 H108           9.9717     6.0025     0.2732 H       
 109 H109           9.1196     6.3776    -1.2438 H       
 110 H110          11.0966     8.0890     0.5493 H       
 111 H111          10.5564     8.4418    -1.1105 H       
 112 H112           1.5762    -1.3219     0.7530 H       
 113 H113          11.1592    10.5174     0.1516 H       
 114 H114           9.4478    10.5000    -0.3399 H       
 115 H115           8.3356     9.6433     3.0327 H       
 116 H116           7.7616     9.9780     1.3806 H       
 117 H117           7.6931     7.5553     1.8112 H       
 118 H118           9.4150     7.5684     2.2651 H       
 119 H119          -0.2481    -3.9044     1.0217 H       
 120 H120           0.7922    -5.3202     0.7357 H       
 121 H121           0.8750    -4.4540     2.2885 H       
 122 H122           2.3923    -2.6209    -1.2672 H       
 123 H123           1.6782    -4.2497    -1.3407 H       
 124 H124           0.6380    -2.8340    -1.0547 H       
 125 H125           3.3376    -4.1549     1.9903 H       
 126 H126           3.2547    -5.0211     0.4375 H       
 127 H127           3.9688    -3.3923     0.5110 H       
@<TRIPOS>BOND
   1    1    2 1
   2    1    6 1
   3    1    5 1
   4    1   67 1
   5    2    3 1
   6    2   10 1
   7    2   68 1
   8    3    4 1
   9    3   13 am
  10    4    5 1
  11    4    7 1
  12    4   69 1
  13    5   70 1
  14    5   71 1
  15    6   32 1
  16    7    8 2
  17    7    9 am
  18    9   18 1
  19    9   72 1
  20   10   11 1
  21   10   73 1
  22   10   74 1
  23   11   12 1
  24   11   53 am
  25   12   13 1
  26   12   15 1
  27   12   75 1
  28   13   14 2
  29   15   16 1
  30   15   17 1
  31   15   76 1
  32   16   77 1
  33   16   78 1
  34   16   79 1
  35   17   80 1
  36   17   81 1
  37   17   82 1
  38   18   19 1
  39   18   24 1
  40   18   25 1
  41   19   20 am
  42   19   21 2
  43   20   22 am
  44   20   83 1
  45   22   23 1
  46   22   28 2
  47   22   29 2
  48   23   26 1
  49   23   27 1
  50   23   84 1
  51   24   25 1
  52   24   30 1
  53   24   85 1
  54   25   86 1
  55   25   87 1
  56   26   27 1
  57   26   88 1
  58   26   89 1
  59   27   90 1
  60   27   91 1
  61   30   31 2
  62   30   92 1
  63   31   93 1
  64   31   94 1
  65   32   33 ar
  66   32   34 ar
  67   33   37 ar
  68   33   43 ar
  69   34   35 ar
  70   34   95 1
  71   35   36 ar
  72   35   38 1
  73   36   37 ar
  74   37   40 ar
  75   38   47 2
  76   38   39 1
  77   39   49 1
  78   40   41 ar
  79   40   44 1
  80   41   42 ar
  81   41   45 1
  82   42   43 ar
  83   42   96 1
  84   43   97 1
  85   45   46 1
  86   46   54 1
  87   46   98 1
  88   46   99 1
  89   47   48 1
  90   48   49 2
  91   48   50 1
  92   49  100 1
  93   50   51 1
  94   50   52 1
  95   50  101 1
  96   51  102 1
  97   51  103 1
  98   51  104 1
  99   52  105 1
 100   52  106 1
 101   52  107 1
 102   53   57 am
 103   53   58 2
 104   54   55 1
 105   54  108 1
 106   54  109 1
 107   55   56 1
 108   55   62 1
 109   56   59 1
 110   56  110 1
 111   56  111 1
 112   57   63 1
 113   57  112 1
 114   59   60 1
 115   59  113 1
 116   59  114 1
 117   60   61 1
 118   61   62 1
 119   61  115 1
 120   61  116 1
 121   62  117 1
 122   62  118 1
 123   63   64 1
 124   63   65 1
 125   63   66 1
 126   64  119 1
 127   64  120 1
 128   64  121 1
 129   65  122 1
 130   65  123 1
 131   65  124 1
 132   66  125 1
 133   66  126 1
 134   66  127 1

#	End of record

