#	Name: ASD00450061
#	Creating user name:	WinNT
#	Creation time:	15. 06. 2019 18:36

#	Modifying user name:	WinNT
#	Modification time:	15. 06. 2019 18:36

#	Program:	/corina/corina34_cracker 3.40 0067  02.08.2006

@<TRIPOS>MOLECULE
ASD00450061
  46   48    0    0    0
SMALL
NO_CHARGES


@<TRIPOS>ATOM
   1 C1            -0.2198     1.3444     0.4954 C.ar    
   2 C2            -0.4632    -0.0372     0.5380 C.ar    
   3 C3             0.5347    -0.8990     0.9605 C.ar    
   4 C4             1.7712    -0.4025     1.3408 C.ar    
   5 C5             2.0232     0.9584     1.3031 C.ar    
   6 C6             1.0376     1.8389     0.8831 C.ar    
   7 C7            -1.2706     2.2675     0.0427 C.2     
   8 O8            -2.0518     2.7410     0.8461 O.2     
   9 N9            -1.3685     2.5891    -1.2625 N.am    
  10 N10            1.2920     3.2042     0.8453 N.pl3   
  11 C11            2.2961     3.7512     1.6514 C.ar    
  12 C12            2.8765     4.9688     1.3119 C.ar    
  13 C13            2.7116     3.0826     2.7952 C.ar    
  14 C14            3.7030     3.6253     3.5895 C.ar    
  15 C15            4.2826     4.8338     3.2473 C.ar    
  16 C16            3.8684     5.5062     2.1116 C.ar    
  17 F17            2.7376    -1.2525     1.7519 F       
  18 F18            2.4721     5.6251     0.2024 F       
  19 I19            5.7851     5.6518     4.4566 I       
  20 O20           -1.6725    -0.5266     0.1669 O.3     
  21 C21           -1.8311    -1.8767     0.1309 C.ar    
  22 C22           -2.1508    -2.5739     1.2948 C.ar    
  23 C23           -2.3113    -3.9508     1.2519 C.ar    
  24 C24           -1.6810    -2.5619    -1.0633 C.ar    
  25 C25           -1.8426    -3.9350    -1.0983 C.ar    
  26 C26           -2.1541    -4.6277     0.0566 C.ar    
  27 N27           -2.3090    -1.8865     2.5033 N.am    
  28 S28           -3.4099    -2.4181     3.6203 S.o2    
  29 O29           -3.3823    -1.4811     4.6883 O.2     
  30 O30           -4.5910    -2.7391     2.8984 O.2     
  31 N31           -2.8351    -3.8445     4.2346 N.am    
  32 H32            0.3485    -1.9623     0.9940 H       
  33 H33            2.9902     1.3354     1.6019 H       
  34 H34           -0.7456     2.2116    -1.9031 H       
  35 H35           -2.0618     3.1982    -1.5612 H       
  36 H36            0.7734     3.7781     0.2601 H       
  37 H37            2.2598     2.1392     3.0638 H       
  38 H38            4.0258     3.1053     4.4794 H       
  39 H39            4.3199     6.4516     1.8493 H       
  40 H40           -2.5587    -4.4941     2.1519 H       
  41 H41           -1.4380    -2.0237    -1.9676 H       
  42 H42           -1.7252    -4.4675    -2.0305 H       
  43 H43           -2.2789    -5.7000     0.0245 H       
  44 H44           -1.7738    -1.0986     2.6867 H       
  45 H45           -1.9918    -4.2041     3.9179 H       
  46 H46           -3.3418    -4.3203     4.9112 H       
@<TRIPOS>BOND
   1    1    2 ar
   2    1    6 ar
   3    1    7 1
   4    2    3 ar
   5    2   20 1
   6    3    4 ar
   7    3   32 1
   8    4    5 ar
   9    4   17 1
  10    5    6 ar
  11    5   33 1
  12    6   10 1
  13    7    8 2
  14    7    9 am
  15    9   34 1
  16    9   35 1
  17   10   11 1
  18   10   36 1
  19   11   13 ar
  20   11   12 ar
  21   12   16 ar
  22   12   18 1
  23   13   14 ar
  24   13   37 1
  25   14   15 ar
  26   14   38 1
  27   15   16 ar
  28   15   19 1
  29   16   39 1
  30   20   21 1
  31   21   22 ar
  32   21   24 ar
  33   22   23 ar
  34   22   27 1
  35   23   26 ar
  36   23   40 1
  37   24   25 ar
  38   24   41 1
  39   25   26 ar
  40   25   42 1
  41   26   43 1
  42   27   28 am
  43   27   44 1
  44   28   29 2
  45   28   30 2
  46   28   31 am
  47   31   45 1
  48   31   46 1

#	End of record

