#	Name: ASD03230010
#	Creating user name:	WinNT
#	Creation time:	15. 06. 2019 20:34

#	Modifying user name:	WinNT
#	Modification time:	15. 06. 2019 20:34

#	Program:	/corina/corina34_cracker 3.40 0067  02.08.2006

@<TRIPOS>MOLECULE
ASD03230010
  21   21    0    0    0
SMALL
NO_CHARGES


@<TRIPOS>ATOM
   1 C1            -0.0167     1.3834     0.0096 C.ar    
   2 C2             0.0021    -0.0041     0.0020 C.ar    
   3 C3             1.2130    -0.6904    -0.0132 C.ar    
   4 C4             2.3945    -0.0065    -0.0204 C.ar    
   5 C5             2.3945     1.3942    -0.0129 C.ar    
   6 C6             1.1731     2.0902     0.0021 C.ar    
   7 C7             3.6627     2.1313    -0.0200 C.2     
   8 C8             4.8362     1.4582    -0.0340 C.2     
   9 C9             6.0601     2.1695    -0.0409 C.2     
  10 O10            7.2307     1.4981    -0.0548 O.3     
  11 O11            6.0566     3.3863    -0.0343 O.2     
  12 O12            1.1609     3.4469     0.0095 O.3     
  13 O13           -1.1660    -0.6954     0.0099 O.3     
  14 H14           -0.9590     1.9111     0.0170 H       
  15 H15            1.2178    -1.7704    -0.0191 H       
  16 H16            3.3301    -0.5459    -0.0315 H       
  17 H17            3.6596     3.2113    -0.0142 H       
  18 H18            4.8392     0.3782    -0.0398 H       
  19 H19            8.0114     2.0688    -0.0586 H       
  20 H20            1.1493     3.8450    -0.8717 H       
  21 H21           -1.5132    -0.8909    -0.8711 H       
@<TRIPOS>BOND
   1    1    2 ar
   2    1    6 ar
   3    1   14 1
   4    2    3 ar
   5    2   13 1
   6    3    4 ar
   7    3   15 1
   8    4    5 ar
   9    4   16 1
  10    5    6 ar
  11    5    7 1
  12    6   12 1
  13    7    8 2
  14    7   17 1
  15    8    9 1
  16    8   18 1
  17    9   10 1
  18    9   11 2
  19   10   19 1
  20   12   20 1
  21   13   21 1

#	End of record

