#	Name: ASD04910170
#	Creating user name:	WinNT
#	Creation time:	15. 06. 2019 20:55

#	Modifying user name:	WinNT
#	Modification time:	15. 06. 2019 20:55

#	Program:	/corina/corina34_cracker 3.40 0067  02.08.2006

@<TRIPOS>MOLECULE
ASD04910170
  21   21    0    0    0
SMALL
NO_CHARGES


@<TRIPOS>ATOM
   1 N1            -0.0169     1.3966     0.0097 N.pl3   
   2 N2             0.0021    -0.0041     0.0020 N.2     
   3 C3             1.2503    -0.3959    -0.0120 C.2     
   4 C4             2.0651     0.7410    -0.0137 C.2     
   5 C5             1.2612     1.8294    -0.0002 C.2     
   6 C6             3.5720     0.7518    -0.0276 C.3     
   7 C7             4.0923    -0.6870    -0.0404 C.3     
   8 C8             4.0653     1.4837    -1.2774 C.3     
   9 C9             4.0884     1.4697     1.2210 C.3     
  10 H10           -0.8090     1.9566     0.0167 H       
  11 H11            1.5925    -1.4202    -0.0205 H       
  12 H12            1.5846     2.8598     0.0023 H       
  13 H13            3.7244    -1.1984    -0.9299 H       
  14 H14            5.1822    -0.6791    -0.0505 H       
  15 H15            3.7409    -1.2084     0.8500 H       
  16 H16            3.6946     2.5087    -1.2682 H       
  17 H17            5.1552     1.4915    -1.2874 H       
  18 H18            3.6974     0.9722    -2.1668 H       
  19 H19            3.7370     0.9483     2.1114 H       
  20 H20            5.1783     1.4775     1.2109 H       
  21 H21            3.7178     2.4947     1.2301 H       
@<TRIPOS>BOND
   1    1    2 1
   2    1    5 1
   3    1   10 1
   4    2    3 2
   5    3    4 1
   6    3   11 1
   7    4    5 2
   8    4    6 1
   9    5   12 1
  10    6    7 1
  11    6    9 1
  12    6    8 1
  13    7   13 1
  14    7   14 1
  15    7   15 1
  16    8   16 1
  17    8   17 1
  18    8   18 1
  19    9   19 1
  20    9   20 1
  21    9   21 1

#	End of record

