#	Name: ASD01881409
#	Creating user name:	WinNT
#	Creation time:	15. 06. 2019 19:42

#	Modifying user name:	WinNT
#	Modification time:	15. 06. 2019 19:42

#	Program:	/corina/corina34_cracker 3.40 0067  02.08.2006

@<TRIPOS>MOLECULE
ASD01881409
  50   54    0    0    0
SMALL
NO_CHARGES


@<TRIPOS>ATOM
   1 C1            -0.3614     1.5719    -0.0653 C.3     
   2 Cl2            0.5547     8.5299     0.4865 Cl      
   3 C3             1.1470     9.9912     4.3839 C.ar    
   4 C4             1.3100     8.8948     3.5629 C.ar    
   5 C5            -0.0365    10.1636     5.0879 C.ar    
   6 C6            -1.0623     9.2317     4.9684 C.ar    
   7 C7            -0.9050     8.1327     4.1485 C.ar    
   8 C8             0.2843     7.9580     3.4400 C.ar    
   9 C9             0.4569     6.7799     2.5585 C.2     
  10 C10            0.5895     6.9438     1.1914 C.2     
  11 C11            0.4937     5.4750     3.1077 C.2     
  12 C12            0.6511     4.4060     2.3052 C.2     
  13 N13            0.7775     4.5575     0.9540 N.pl3   
  14 C14            0.7523     5.8060     0.3812 C.2     
  15 C15            0.9437     3.6804    -0.0742 C.2     
  16 N16            1.0063     4.3766    -1.1799 N.2     
  17 N17            0.8953     5.6326    -0.9238 N.2     
  18 C18            1.0383     2.1808     0.0407 C.3     
  19 F19           -2.2129     9.4022     5.6555 F       
  20 O20           -0.1935    11.2450     5.8957 O.3     
  21 C21            0.1102    11.1068     7.2130 C.ar    
  22 C22            0.0363    12.1955     8.0704 C.ar    
  23 C23            0.4943     9.8705     7.7226 C.ar    
  24 C24            0.7938     9.7790     9.0725 C.ar    
  25 C25            0.7020    10.9096     9.8623 C.ar    
  26 N26            0.3296    12.0659     9.3488 N.ar    
  27 C27           -0.4679     0.0458    -0.0891 C.3     
  28 C28           -0.9005     0.8235     1.1555 C.3     
  29 C29            1.0256    10.8183    11.3313 C.3     
  30 C30           -0.3832    13.5400     7.5341 C.3     
  31 H31           -1.0750     2.1357    -0.6661 H       
  32 H32            1.9432    10.7142     4.4823 H       
  33 H33            2.2314     8.7622     3.0153 H       
  34 H34           -1.7011     7.4088     4.0558 H       
  35 H35            0.3952     5.3372     4.1744 H       
  36 H36            0.6784     3.4158     2.7355 H       
  37 H37            1.4773     1.9171     1.0029 H       
  38 H38            1.6647     1.7936    -0.7628 H       
  39 H39            0.5571     9.0033     7.0820 H       
  40 H40            1.0951     8.8352     9.5025 H       
  41 H41           -1.2519    -0.3944    -0.7052 H       
  42 H42            0.4591    -0.5244    -0.0292 H       
  43 H43           -0.2581     0.7650     2.0341 H       
  44 H44           -1.9691     0.8950     1.3581 H       
  45 H45            2.0864    11.0177    11.4828 H       
  46 H46            0.4359    11.5531    11.8795 H       
  47 H47            0.7884     9.8182    11.6941 H       
  48 H48           -1.4663    13.6383     7.6069 H       
  49 H49            0.0931    14.3283     8.1169 H       
  50 H50           -0.0799    13.6257     6.4907 H       
@<TRIPOS>BOND
   1    1   27 1
   2    1   18 1
   3    1   28 1
   4    1   31 1
   5    2   10 1
   6    3    4 ar
   7    3    5 ar
   8    3   32 1
   9    4    8 ar
  10    4   33 1
  11    5    6 ar
  12    5   20 1
  13    6    7 ar
  14    6   19 1
  15    7    8 ar
  16    7   34 1
  17    8    9 1
  18    9   10 2
  19    9   11 1
  20   10   14 1
  21   11   12 2
  22   11   35 1
  23   12   13 1
  24   12   36 1
  25   13   14 1
  26   13   15 1
  27   14   17 2
  28   15   16 2
  29   15   18 1
  30   16   17 1
  31   18   37 1
  32   18   38 1
  33   20   21 1
  34   21   22 ar
  35   21   23 ar
  36   22   30 1
  37   22   26 ar
  38   23   24 ar
  39   23   39 1
  40   24   25 ar
  41   24   40 1
  42   25   26 ar
  43   25   29 1
  44   27   28 1
  45   27   41 1
  46   27   42 1
  47   28   43 1
  48   28   44 1
  49   29   45 1
  50   29   46 1
  51   29   47 1
  52   30   48 1
  53   30   49 1
  54   30   50 1

#	End of record

