#	Name: ASD01209055
#	Creating user name:	WinNT
#	Creation time:	15. 06. 2019 19:10

#	Modifying user name:	WinNT
#	Modification time:	15. 06. 2019 19:10

#	Program:	/corina/corina34_cracker 3.40 0067  02.08.2006

@<TRIPOS>MOLECULE
ASD01209055
  56   60    0    0    0
SMALL
NO_CHARGES


@<TRIPOS>ATOM
   1 C1            -0.3286     1.6300     0.0807 C.3     
   2 C2            -0.1812     0.1129    -0.0710 C.3     
   3 C3             0.8329    -0.3960     0.9581 C.3     
   4 C4             2.1611     0.3394     0.7610 C.3     
   5 C5             1.0445     2.2871    -0.0826 C.3     
   6 C6            -1.5346    -0.5593     0.1684 C.3     
   7 C7            -1.4308    -2.0486    -0.1667 C.3     
   8 C8            -2.8036    -2.6690    -0.1282 C.2     
   9 N9            -3.7707    -2.2168    -0.9508 N.am    
  10 C10           -5.0689    -2.7125    -0.8390 C.ar    
  11 N11           -0.5678    -2.7109     0.8145 N.pl3   
  12 C12            0.4949    -3.5269     0.5296 C.ar    
  13 C13            1.0294    -3.9364     1.7698 C.ar    
  14 C14            0.2440    -3.3329     2.7763 C.2     
  15 N15           -0.6822    -2.6152     2.2075 N.2     
  16 O16           -3.0381    -3.5752     0.6429 O.2     
  17 O17            1.9476     1.7470     0.8843 O.3     
  18 C18            1.0910    -3.9858    -0.6396 C.ar    
  19 N19            2.1339    -4.7867    -0.5813 N.ar    
  20 C20            2.6582    -5.1885     0.5654 C.ar    
  21 C21            2.1415    -4.7901     1.7643 C.ar    
  22 C22           -6.0421    -2.3334    -1.7590 C.ar    
  23 N23           -7.2701    -2.8047    -1.6498 N.ar    
  24 C24           -7.5759    -3.6359    -0.6680 C.ar    
  25 C25           -6.6116    -4.0145     0.2475 C.ar    
  26 N26           -5.3783    -3.5507     0.1412 N.ar    
  27 C27            3.5075    -3.8290     4.0448 C.3     
  28 C28            4.3072    -3.9823     5.3401 C.3     
  29 C29            5.0241    -3.6274     4.0359 C.3     
  30 S30            2.8587    -5.3391     3.2772 S.o2    
  31 O31            1.7599    -5.8450     4.0227 O.2     
  32 O32            3.9229    -6.1894     2.8723 O.2     
  33 H33           -1.0068     2.0083    -0.6842 H       
  34 H34           -0.7274     1.8602     1.0686 H       
  35 H35            0.1707    -0.1206    -1.0759 H       
  36 H36            0.4575    -0.2066     1.9638 H       
  37 H37            0.9854    -1.4665     0.8208 H       
  38 H38            2.8737     0.0121     1.5181 H       
  39 H39            2.5560     0.1171    -0.2304 H       
  40 H40            1.4247     2.0903    -1.0850 H       
  41 H41            0.9527     3.3629     0.0668 H       
  42 H42           -1.8190    -0.4412     1.2140 H       
  43 H43           -2.2883    -0.0954    -0.4678 H       
  44 H44           -1.0059    -2.1679    -1.1634 H       
  45 H45           -3.5636    -1.5465    -1.6206 H       
  46 H46            0.3899    -3.4442     3.8406 H       
  47 H47            0.6969    -3.6843    -1.5989 H       
  48 H48            3.5147    -5.8463     0.5523 H       
  49 H49           -5.7929    -1.6542    -2.5608 H       
  50 H50           -8.5816    -4.0197    -0.5809 H       
  51 H51           -6.8652    -4.6936     1.0481 H       
  52 H52            2.8810    -2.9429     3.9420 H       
  53 H53            4.2072    -3.1970     6.0893 H       
  54 H54            4.4436    -4.9907     5.7310 H       
  55 H55            5.6321    -4.4021     3.5687 H       
  56 H56            5.3957    -2.6085     3.9270 H       
@<TRIPOS>BOND
   1    1    2 1
   2    1    5 1
   3    1   33 1
   4    1   34 1
   5    2    3 1
   6    2    6 1
   7    2   35 1
   8    3    4 1
   9    3   36 1
  10    3   37 1
  11    4   17 1
  12    4   38 1
  13    4   39 1
  14    5   17 1
  15    5   40 1
  16    5   41 1
  17    6    7 1
  18    6   42 1
  19    6   43 1
  20    7    8 1
  21    7   11 1
  22    7   44 1
  23    8    9 am
  24    8   16 2
  25    9   10 1
  26    9   45 1
  27   10   22 ar
  28   10   26 ar
  29   11   12 1
  30   11   15 1
  31   12   13 ar
  32   12   18 ar
  33   13   14 1
  34   13   21 ar
  35   14   15 2
  36   14   46 1
  37   18   19 ar
  38   18   47 1
  39   19   20 ar
  40   20   21 ar
  41   20   48 1
  42   21   30 1
  43   22   23 ar
  44   22   49 1
  45   23   24 ar
  46   24   25 ar
  47   24   50 1
  48   25   26 ar
  49   25   51 1
  50   27   28 1
  51   27   30 1
  52   27   29 1
  53   27   52 1
  54   28   29 1
  55   28   53 1
  56   28   54 1
  57   29   55 1
  58   29   56 1
  59   30   31 2
  60   30   32 2

#	End of record

