#	Name: ASD01914292
#	Creating user name:	WinNT
#	Creation time:	15. 06. 2019 20:03

#	Modifying user name:	WinNT
#	Modification time:	15. 06. 2019 20:03

#	Program:	/corina/corina34_cracker 3.40 0067  02.08.2006

@<TRIPOS>MOLECULE
ASD01914292
  30   32    0    0    0
SMALL
NO_CHARGES


@<TRIPOS>ATOM
   1 N1            -0.0169     1.3964     0.0097 N.2     
   2 N2             0.0021    -0.0041     0.0020 N.pl3   
   3 C3             1.2264     1.8293     0.0002 C.2     
   4 C4             2.0818     0.7148    -0.0140 C.2     
   5 C5             1.3050    -0.4065    -0.0126 C.2     
   6 C6             1.7882    -1.8053    -0.0243 C.ar    
   7 C7             1.6517     3.2516     0.0033 C.ar    
   8 C8             0.7041     4.2613     0.1285 C.ar    
   9 C9             0.8767    -2.8612    -0.0213 C.ar    
  10 C10            3.0027     3.5766    -0.1135 C.ar    
  11 C11            3.4016     4.8990    -0.1105 C.ar    
  12 C12            2.4668     5.9078     0.0080 C.ar    
  13 C13            1.1111     5.5952     0.1306 C.ar    
  14 C14            1.3335    -4.1631    -0.0327 C.ar    
  15 C15            2.6924    -4.4223    -0.0466 C.ar    
  16 C16            3.6014    -3.3795    -0.0497 C.ar    
  17 C17            3.1570    -2.0732    -0.0442 C.ar    
  18 C18            0.1412     6.6416     0.2531 C.1     
  19 N19           -0.6282     7.4717     0.3503 N.1     
  20 H20           -0.7745    -0.5852     0.0066 H       
  21 H21            3.1614     0.7412    -0.0241 H       
  22 H22           -0.3428     4.0136     0.2233 H       
  23 H23           -0.1844    -2.6601    -0.0097 H       
  24 H24            3.7391     2.7921    -0.2062 H       
  25 H25            4.4494     5.1447    -0.2010 H       
  26 H26            2.7846     6.9400     0.0101 H       
  27 H27            0.6288    -4.9815    -0.0304 H       
  28 H28            3.0450    -5.4431    -0.0548 H       
  29 H29            4.6610    -3.5882    -0.0602 H       
  30 H30            3.8676    -1.2599    -0.0465 H       
@<TRIPOS>BOND
   1    1    2 1
   2    1    3 2
   3    2    5 1
   4    2   20 1
   5    3    4 1
   6    3    7 1
   7    4    5 2
   8    4   21 1
   9    5    6 1
  10    6    9 ar
  11    6   17 ar
  12    7   10 ar
  13    7    8 ar
  14    8   13 ar
  15    8   22 1
  16    9   14 ar
  17    9   23 1
  18   10   11 ar
  19   10   24 1
  20   11   12 ar
  21   11   25 1
  22   12   13 ar
  23   12   26 1
  24   13   18 1
  25   14   15 ar
  26   14   27 1
  27   15   16 ar
  28   15   28 1
  29   16   17 ar
  30   16   29 1
  31   17   30 1
  32   18   19 3

#	End of record

