#	Name: ASD01900914
#	Creating user name:	WinNT
#	Creation time:	15. 06. 2019 19:52

#	Modifying user name:	WinNT
#	Modification time:	15. 06. 2019 19:52

#	Program:	/corina/corina34_cracker 3.40 0067  02.08.2006

@<TRIPOS>MOLECULE
ASD01900914
  43   45    0    0    0
SMALL
NO_CHARGES


@<TRIPOS>ATOM
   1 C1             0.2081     1.6575     0.2277 C.ar    
   2 C2             0.3439     0.2815     0.0553 C.ar    
   3 C3             1.6011    -0.2902     0.1685 C.ar    
   4 C4             2.6795     0.5342     0.4503 C.ar    
   5 C5             2.4711     1.8947     0.6094 C.ar    
   6 N6             1.2669     2.4115     0.4967 N.ar    
   7 C7            -1.1278     2.2849     0.1039 C.2     
   8 O8            -2.0999     1.6001    -0.1472 O.2     
   9 N9            -1.2655     3.6154     0.2696 N.am    
  10 S10           -2.8369     5.8732     0.3381 S.3     
  11 C11           -2.5181     4.2037     0.1534 C.2     
  12 N12           -3.6159     3.5669    -0.1116 N.2     
  13 C13           -4.7203     4.2856    -0.1864 C.2     
  14 C14           -4.5477     5.5919     0.0254 C.2     
  15 C15           -6.0672     3.6803    -0.4873 C.3     
  16 C16           -6.6883     3.1496     0.8064 C.3     
  17 S17           -5.8103     6.8206    -0.0027 S.o2    
  18 O18           -6.9661     6.1463     0.4754 O.2     
  19 O19           -5.2514     7.9137     0.7128 O.2     
  20 C20           -5.9970     7.2376    -1.7582 C.3     
  21 C21           -7.0624     8.2921    -1.9134 C.ar    
  22 C22           -6.7206     9.6334    -1.8696 C.ar    
  23 C23           -7.6998    10.6013    -2.0127 C.ar    
  24 C24           -9.0185    10.2276    -2.1993 C.ar    
  25 C25           -9.3582     8.8873    -2.2428 C.ar    
  26 C26           -8.3795     7.9206    -2.1051 C.ar    
  27 F27           -5.4324     9.9971    -1.6869 F       
  28 Cl28         -10.2474    11.4407    -2.3784 Cl      
  29 H29           -0.5186    -0.3308    -0.1631 H       
  30 H30            1.7377    -1.3538     0.0405 H       
  31 H31            3.6723     0.1199     0.5453 H       
  32 H32            3.3091     2.5398     0.8290 H       
  33 H33           -0.4896     4.1620     0.4699 H       
  34 H34           -6.7190     4.4403    -0.9182 H       
  35 H35           -5.9471     2.8606    -1.1956 H       
  36 H36           -7.6625     2.7118     0.5888 H       
  37 H37           -6.0364     2.3896     1.2373 H       
  38 H38           -6.8084     3.9693     1.5147 H       
  39 H39           -5.0510     7.6174    -2.1440 H       
  40 H40           -6.2847     6.3458    -2.3149 H       
  41 H41           -7.4343    11.6476    -1.9784 H       
  42 H42          -10.3878     8.5958    -2.3885 H       
  43 H43           -8.6450     6.8744    -2.1434 H       
@<TRIPOS>BOND
   1    1    2 ar
   2    1    6 ar
   3    1    7 1
   4    2    3 ar
   5    2   29 1
   6    3    4 ar
   7    3   30 1
   8    4    5 ar
   9    4   31 1
  10    5    6 ar
  11    5   32 1
  12    7    8 2
  13    7    9 am
  14    9   11 1
  15    9   33 1
  16   10   11 1
  17   10   14 1
  18   11   12 2
  19   12   13 1
  20   13   14 2
  21   13   15 1
  22   14   17 1
  23   15   16 1
  24   15   34 1
  25   15   35 1
  26   16   36 1
  27   16   37 1
  28   16   38 1
  29   17   18 2
  30   17   19 2
  31   17   20 1
  32   20   21 1
  33   20   39 1
  34   20   40 1
  35   21   22 ar
  36   21   26 ar
  37   22   23 ar
  38   22   27 1
  39   23   24 ar
  40   23   41 1
  41   24   25 ar
  42   24   28 1
  43   25   26 ar
  44   25   42 1
  45   26   43 1

#	End of record

