#	Name: ASD01940624
#	Creating user name:	WinNT
#	Creation time:	15. 06. 2019 20:12

#	Modifying user name:	WinNT
#	Modification time:	15. 06. 2019 20:12

#	Program:	/corina/corina34_cracker 3.40 0067  02.08.2006

@<TRIPOS>MOLECULE
ASD01940624
  39   41    0    0    0
SMALL
NO_CHARGES


@<TRIPOS>ATOM
   1 C1            -2.3735     1.8497     1.3433 C.ar    
   2 C2            -3.5707     2.5269     1.4954 C.ar    
   3 C3            -4.3886     2.2510     2.5761 C.ar    
   4 C4            -4.0092     1.2979     3.5045 C.ar    
   5 C5            -2.8122     0.6216     3.3514 C.ar    
   6 C6            -1.9951     0.8978     2.2711 C.ar    
   7 S7            -1.3349     2.1958    -0.0373 S.o2    
   8 O8            -1.1789     3.6076    -0.0781 O.2     
   9 O9            -0.2393     1.2950     0.0490 O.2     
  10 N10           -2.1769     1.7788    -1.4009 N.am    
  11 C11           -2.4840     0.4347    -1.6511 C.ar    
  12 C12           -2.5227    -0.0408    -2.9613 C.ar    
  13 C13           -2.8269    -1.3734    -3.2034 C.ar    
  14 C14           -3.0910    -2.2264    -2.1432 C.ar    
  15 C15           -3.0524    -1.7519    -0.8436 C.ar    
  16 C16           -2.7442    -0.4264    -0.5961 C.ar    
  17 N17           -2.2555     0.8246    -4.0311 N.pl3   
  18 C18           -2.6490     0.4764    -5.3271 C.ar    
  19 C19           -3.9922     0.5306    -5.6863 C.ar    
  20 C20           -4.3768     0.1861    -6.9686 C.ar    
  21 C21           -3.4274    -0.2125    -7.8932 C.ar    
  22 C22           -2.0920    -0.2674    -7.5381 C.ar    
  23 C23           -1.6997     0.0815    -6.2599 C.ar    
  24 I24           -4.0146    -0.7344    -9.8353 I       
  25 F25           -4.9190     0.9188    -4.7833 F       
  26 F26           -3.3871    -3.5233    -2.3789 F       
  27 F27           -2.8660    -1.8384    -4.4712 F       
  28 Cl28          -5.0349     0.9514     4.8615 Cl      
  29 Cl29          -4.0456     3.7230     0.3302 Cl      
  30 H30           -5.3228     2.7795     2.6953 H       
  31 H31           -2.5158    -0.1222     4.0763 H       
  32 H32           -1.0609     0.3693     2.1518 H       
  33 H33           -2.4576     2.4650    -2.0264 H       
  34 H34           -3.2595    -2.4194    -0.0202 H       
  35 H35           -2.7103    -0.0609     0.4196 H       
  36 H36           -1.7978     1.6650    -3.8725 H       
  37 H37           -5.4189     0.2276    -7.2489 H       
  38 H38           -1.3540    -0.5796    -8.2622 H       
  39 H39           -0.6559     0.0424    -5.9853 H       
@<TRIPOS>BOND
   1    1    2 ar
   2    1    6 ar
   3    1    7 1
   4    2    3 ar
   5    2   29 1
   6    3    4 ar
   7    3   30 1
   8    4    5 ar
   9    4   28 1
  10    5    6 ar
  11    5   31 1
  12    6   32 1
  13    7    8 2
  14    7    9 2
  15    7   10 am
  16   10   11 1
  17   10   33 1
  18   11   12 ar
  19   11   16 ar
  20   12   13 ar
  21   12   17 1
  22   13   14 ar
  23   13   27 1
  24   14   15 ar
  25   14   26 1
  26   15   16 ar
  27   15   34 1
  28   16   35 1
  29   17   18 1
  30   17   36 1
  31   18   19 ar
  32   18   23 ar
  33   19   20 ar
  34   19   25 1
  35   20   21 ar
  36   20   37 1
  37   21   22 ar
  38   21   24 1
  39   22   23 ar
  40   22   38 1
  41   23   39 1

#	End of record

