#	Name: ASD01410537
#	Creating user name:	WinNT
#	Creation time:	15. 06. 2019 19:18

#	Modifying user name:	WinNT
#	Modification time:	15. 06. 2019 19:18

#	Program:	/corina/corina34_cracker 3.40 0067  02.08.2006

@<TRIPOS>MOLECULE
ASD01410537
  95   99    0    0    0
SMALL
NO_CHARGES


@<TRIPOS>ATOM
   1 C1             5.2706     6.6097    -3.4490 C.ar    
   2 C2             5.6955     5.8154    -4.5122 C.ar    
   3 C3             6.3199     4.6059    -4.2445 C.ar    
   4 N4             6.5117     4.2067    -3.0018 N.ar    
   5 C5             6.1214     4.9351    -1.9694 C.ar    
   6 C6             5.4900     6.1572    -2.1599 C.ar    
   7 O7             6.3405     4.4828    -0.7083 O.3     
   8 C8             6.8673     3.2378    -0.5590 C.ar    
   9 C9             8.2414     3.0464    -0.6794 C.ar    
  10 C10            8.7862     1.7845    -0.5293 C.ar    
  11 C11            7.9655     0.7001    -0.2569 C.ar    
  12 C12            6.5797     0.8875    -0.1340 C.ar    
  13 C13            6.0383     2.1680    -0.2827 C.ar    
  14 F14            9.0460     4.0988    -0.9447 F       
  15 N15            8.5150    -0.5722    -0.1061 N.am    
  16 C16            8.8959    -1.0015     1.1134 C.2     
  17 C17            8.6785    -1.4425    -1.2731 C.3     
  18 O18            9.4524    -2.0724     1.2328 O.2     
  19 C19            8.6303    -0.1507     2.3286 C.3     
  20 N20            5.4944     6.2323    -5.8331 N.3     
  21 C21            9.7679    -0.3308     3.3358 C.3     
  22 C22            9.4983     0.5329     4.5695 C.3     
  23 C23            8.1765     0.1067     5.2115 C.3     
  24 C24            7.0389     0.2868     4.2043 C.3     
  25 C25            7.3085    -0.5769     2.9706 C.3     
  26 C26            7.9069     0.9704     6.4453 C.3     
  27 C27            7.9782    -0.8145    -2.4798 C.3     
  28 O28            6.5700    -0.7672    -2.2419 O.3     
  29 C29            5.8183    -0.1949    -3.3140 C.3     
  30 C30           10.1681    -1.6113    -1.5788 C.3     
  31 O31           10.7966    -2.3202    -0.5089 O.3     
  32 C32           12.1974    -2.5323    -0.6959 C.3     
  33 C33            6.0192     5.2429    -6.7829 C.3     
  34 C34            5.9146     5.7949    -8.2064 C.3     
  35 C35            4.4487     6.1052    -8.5218 C.3     
  36 C36            3.9124     7.1008    -7.4895 C.3     
  37 C37            4.0751     6.5110    -6.0868 C.3     
  38 N38            4.3489     6.6899    -9.8658 N.3     
  39 C39            4.9479     5.8027   -10.8717 C.3     
  40 C40            2.9532     7.0008   -10.2023 C.3     
  41 C41            2.6896     7.7250   -11.5240 C.3     
  42 C42            2.3246     6.2466   -11.3757 C.3     
  43 C43            5.7010    -0.2583     0.1551 C.2     
  44 O44            6.1816    -1.3534     0.3712 O.2     
  45 O45            4.3637    -0.0924     0.1802 O.3     
  46 C46            5.0492     6.9805    -0.9772 C.3     
  47 F47            4.4439     8.1583    -1.4285 F       
  48 F48            4.1332     6.2480    -0.2145 F       
  49 F49            6.1612     7.2995    -0.1906 F       
  50 H50            4.7855     7.5582    -3.6269 H       
  51 H51            6.6524     3.9840    -5.0625 H       
  52 H52            9.8526     1.6429    -0.6247 H       
  53 H53            4.9731     2.3191    -0.1890 H       
  54 H54            8.2378    -2.4173    -1.0640 H       
  55 H55            8.5694     0.8966     2.0327 H       
  56 H56            9.8288    -1.3781     3.6317 H       
  57 H57           10.7096    -0.0272     2.8784 H       
  58 H58           10.3087     0.4046     5.2870 H       
  59 H59            9.4374     1.5802     4.2736 H       
  60 H60            8.2374    -0.9406     5.5074 H       
  61 H61            6.0972    -0.0169     4.6617 H       
  62 H62            6.9780     1.3341     3.9084 H       
  63 H63            6.4981    -0.4486     2.2531 H       
  64 H64            7.3694    -1.6242     3.2665 H       
  65 H65            7.8460     2.0177     6.1493 H       
  66 H66            6.9652     0.6668     6.9026 H       
  67 H67            8.7173     0.8421     7.1628 H       
  68 H68            8.3550     0.1968    -2.6328 H       
  69 H69            8.1767    -1.4145    -3.3679 H       
  70 H70            6.1503     0.8292    -3.4843 H       
  71 H71            5.9720    -0.7820    -4.2194 H       
  72 H72            4.7592    -0.1954    -3.0560 H       
  73 H73           10.2876    -2.1721    -2.5058 H       
  74 H74           10.6306    -0.6301    -1.6855 H       
  75 H75           12.3589    -3.1121    -1.6047 H       
  76 H76           12.7019    -1.5701    -0.7844 H       
  77 H77           12.5997    -3.0763     0.1586 H       
  78 H78            7.0635     5.0344    -6.5501 H       
  79 H79            5.4395     4.3230    -6.7065 H       
  80 H80            6.5053     6.7074    -8.2873 H       
  81 H81            6.2898     5.0541    -8.9125 H       
  82 H82            3.8645     5.1860    -8.4792 H       
  83 H83            4.4716     8.0338    -7.5591 H       
  84 H84            2.8572     7.2930    -7.6833 H       
  85 H85            3.5045     5.5852    -6.0136 H       
  86 H86            3.7073     7.2234    -5.3483 H       
  87 H87            4.4273     4.8450   -10.8677 H       
  88 H88            4.8604     6.2596   -11.8574 H       
  89 H89            6.0004     5.6450   -10.6365 H       
  90 H90            2.3091     7.2449    -9.3575 H       
  91 H91            1.8719     8.4453   -11.5488 H       
  92 H92            3.5518     7.9708   -12.1438 H       
  93 H93            2.9466     5.5198   -11.8980 H       
  94 H94            1.2667     5.9943   -11.3030 H       
  95 H95            3.8280    -0.8737     0.3744 H       
@<TRIPOS>BOND
   1    1    2 ar
   2    1    6 ar
   3    1   50 1
   4    2    3 ar
   5    2   20 1
   6    3    4 ar
   7    3   51 1
   8    4    5 ar
   9    5    6 ar
  10    5    7 1
  11    6   46 1
  12    7    8 1
  13    8    9 ar
  14    8   13 ar
  15    9   10 ar
  16    9   14 1
  17   10   11 ar
  18   10   52 1
  19   11   12 ar
  20   11   15 1
  21   12   13 ar
  22   12   43 1
  23   13   53 1
  24   15   16 am
  25   15   17 1
  26   16   18 2
  27   16   19 1
  28   17   27 1
  29   17   30 1
  30   17   54 1
  31   19   21 1
  32   19   25 1
  33   19   55 1
  34   20   33 1
  35   20   37 1
  36   21   22 1
  37   21   56 1
  38   21   57 1
  39   22   23 1
  40   22   58 1
  41   22   59 1
  42   23   24 1
  43   23   26 1
  44   23   60 1
  45   24   25 1
  46   24   61 1
  47   24   62 1
  48   25   63 1
  49   25   64 1
  50   26   65 1
  51   26   66 1
  52   26   67 1
  53   27   28 1
  54   27   68 1
  55   27   69 1
  56   28   29 1
  57   29   70 1
  58   29   71 1
  59   29   72 1
  60   30   31 1
  61   30   73 1
  62   30   74 1
  63   31   32 1
  64   32   75 1
  65   32   76 1
  66   32   77 1
  67   33   34 1
  68   33   78 1
  69   33   79 1
  70   34   35 1
  71   34   80 1
  72   34   81 1
  73   35   36 1
  74   35   38 1
  75   35   82 1
  76   36   37 1
  77   36   83 1
  78   36   84 1
  79   37   85 1
  80   37   86 1
  81   38   39 1
  82   38   40 1
  83   39   87 1
  84   39   88 1
  85   39   89 1
  86   40   41 1
  87   40   42 1
  88   40   90 1
  89   41   42 1
  90   41   91 1
  91   41   92 1
  92   42   93 1
  93   42   94 1
  94   43   44 2
  95   43   45 1
  96   45   95 1
  97   46   47 1
  98   46   48 1
  99   46   49 1

#	End of record

