#	Name: ASD00840702
#	Creating user name:	WinNT
#	Creation time:	15. 06. 2019 18:39

#	Modifying user name:	WinNT
#	Modification time:	15. 06. 2019 18:39

#	Program:	/corina/corina34_cracker 3.40 0067  02.08.2006

@<TRIPOS>MOLECULE
ASD00840702
  87   92    0    0    0
SMALL
NO_CHARGES


@<TRIPOS>ATOM
   1 F1             6.0849    -1.9616    -1.9967 F       
   2 N2             1.0861     1.4618    -0.7390 N.ar    
   3 C3             1.3433     0.1694    -0.8499 C.ar    
   4 C4             1.2529    -0.6677     0.2551 C.ar    
   5 C5             0.8892    -0.1316     1.4778 C.ar    
   6 C6             0.6274     1.2298     1.5524 C.ar    
   7 C7             0.7370     2.0019     0.4133 C.ar    
   8 C8             1.5465    -2.1400     0.1238 C.3     
   9 C9             1.2528    -2.8573     1.4241 C.2     
  10 C10            0.7316    -2.7478    -1.0196 C.3     
  11 C11           -0.7311    -2.4553    -0.8047 C.2     
  12 N12           -1.6520    -2.9743    -1.6408 N.am    
  13 O13           -1.0795    -1.7529     0.1205 O.2     
  14 C14           -3.0725    -2.6137    -1.5170 C.3     
  15 C15           -3.5838    -2.1703    -2.8918 C.3     
  16 N16           -3.2927    -3.2174    -3.8801 N.3     
  17 C17           -1.8456    -3.4216    -4.0295 C.3     
  18 C18           -1.2622    -3.9116    -2.7052 C.3     
  19 C19           -3.9171    -2.9090    -5.1734 C.3     
  20 C20           -3.4913    -3.9531    -6.2093 C.3     
  21 C21           -4.1925    -3.6619    -7.5380 C.3     
  22 N22           -5.6476    -3.7034    -7.3444 N.3     
  23 C23           -6.0856    -2.6777    -6.3892 C.3     
  24 C24           -5.4409    -2.9395    -5.0262 C.3     
  25 C25           -6.3532    -3.5655    -8.6254 C.3     
  26 O26            0.1767    -2.9317     1.9787 O.2     
  27 N27            2.4080    -3.3969     1.8482 N.am    
  28 C28            3.0244    -2.3676    -0.0963 C.ar    
  29 C29            3.4672    -3.1281     0.9787 C.ar    
  30 C30            3.8934    -1.9769    -1.0900 C.ar    
  31 C31            5.2284    -2.3431    -1.0240 C.ar    
  32 C32            5.6817    -3.1016     0.0434 C.ar    
  33 C33            4.8101    -3.4935     1.0400 C.ar    
  34 Cl34           7.3535    -3.5615     0.1280 Cl      
  35 C35            2.2620    -5.9650     2.8269 C.ar    
  36 C36            1.0096    -6.3602     2.3804 C.ar    
  37 C37            3.2784    -6.8940     2.9405 C.ar    
  38 C38            3.0481    -8.2163     2.6092 C.ar    
  39 C39            1.8004    -8.6127     2.1638 C.ar    
  40 C40            0.7809    -7.6880     2.0489 C.ar    
  41 H41            1.6230    -9.6463     1.9055 H       
  42 O42            0.0081    -5.4484     2.2682 O.3     
  43 C43           -1.2553    -5.9264     1.8019 C.3     
  44 O44            1.6986    -0.3441    -2.0545 O.3     
  45 C45            2.2060    -0.1748    -4.4113 C.3     
  46 C46            1.6658     0.5442    -3.1734 C.3     
  47 S47            2.5585    -4.2785     3.2419 S.o2    
  48 O48            3.9244    -4.1936     3.6248 O.2     
  49 O49            1.4882    -3.8790     4.0869 O.2     
  50 H50            0.8103    -0.7580     2.3541 H       
  51 H51            0.3408     1.6798     2.4914 H       
  52 H52            0.5348     3.0615     0.4660 H       
  53 H53            1.0537    -2.3138    -1.9661 H       
  54 H54            0.8868    -3.8265    -1.0430 H       
  55 H55           -3.6415    -3.4787    -1.1762 H       
  56 H56           -3.1819    -1.7961    -0.8045 H       
  57 H57           -4.6601    -2.0048    -2.8436 H       
  58 H58           -3.0860    -1.2457    -3.1842 H       
  59 H59           -1.6613    -4.1637    -4.8064 H       
  60 H60           -1.3720    -2.4797    -4.3060 H       
  61 H61           -0.1755    -3.9547    -2.7774 H       
  62 H62           -1.6563    -4.9016    -2.4754 H       
  63 H63           -3.6019    -1.9190    -5.5033 H       
  64 H64           -2.4114    -3.9069    -6.3499 H       
  65 H65           -3.7712    -4.9471    -5.8603 H       
  66 H66           -3.9014    -2.6734    -7.8933 H       
  67 H67           -3.9025    -4.4120    -8.2737 H       
  68 H68           -5.7857    -1.6938    -6.7498 H       
  69 H69           -7.1706    -2.7130    -6.2906 H       
  70 H70           -5.7515    -3.9176    -4.6586 H       
  71 H71           -5.7540    -2.1691    -4.3215 H       
  72 H72           -6.0654    -4.3814    -9.2885 H       
  73 H73           -7.4290    -3.5995    -8.4532 H       
  74 H74           -6.0888    -2.6132    -9.0852 H       
  75 H75            3.5352    -1.3860    -1.9200 H       
  76 H76            5.1703    -4.0846     1.8690 H       
  77 H77            4.2537    -6.5869     3.2881 H       
  78 H78            3.8441    -8.9408     2.6980 H       
  79 H79           -0.1936    -7.9982     1.7017 H       
  80 H80           -1.1367    -6.3552     0.8068 H       
  81 H81           -1.6292    -6.6898     2.4843 H       
  82 H82           -1.9635    -5.0990     1.7590 H       
  83 H83            2.2630     0.5272    -5.2432 H       
  84 H84            3.2004    -0.5674    -4.1984 H       
  85 H85            1.5396    -0.9963    -4.6740 H       
  86 H86            0.6389     0.8605    -3.3563 H       
  87 H87            2.2829     1.4175    -2.9623 H       
@<TRIPOS>BOND
   1    1   31 1
   2    2    3 ar
   3    2    7 ar
   4    3    4 ar
   5    3   44 1
   6    4    5 ar
   7    4    8 1
   8    5    6 ar
   9    5   50 1
  10    6    7 ar
  11    6   51 1
  12    7   52 1
  13    8    9 1
  14    8   10 1
  15    8   28 1
  16    9   26 2
  17    9   27 am
  18   10   11 1
  19   10   53 1
  20   10   54 1
  21   11   12 am
  22   11   13 2
  23   12   14 1
  24   12   18 1
  25   14   15 1
  26   14   55 1
  27   14   56 1
  28   15   16 1
  29   15   57 1
  30   15   58 1
  31   16   17 1
  32   16   19 1
  33   17   18 1
  34   17   59 1
  35   17   60 1
  36   18   61 1
  37   18   62 1
  38   19   20 1
  39   19   24 1
  40   19   63 1
  41   20   21 1
  42   20   64 1
  43   20   65 1
  44   21   22 1
  45   21   66 1
  46   21   67 1
  47   22   23 1
  48   22   25 1
  49   23   24 1
  50   23   68 1
  51   23   69 1
  52   24   70 1
  53   24   71 1
  54   25   72 1
  55   25   73 1
  56   25   74 1
  57   27   47 am
  58   27   29 1
  59   28   29 ar
  60   28   30 ar
  61   29   33 ar
  62   30   31 ar
  63   30   75 1
  64   31   32 ar
  65   32   33 ar
  66   32   34 1
  67   33   76 1
  68   35   36 ar
  69   35   37 ar
  70   35   47 1
  71   36   42 1
  72   36   40 ar
  73   37   38 ar
  74   37   77 1
  75   38   39 ar
  76   38   78 1
  77   39   40 ar
  78   39   41 1
  79   40   79 1
  80   42   43 1
  81   43   80 1
  82   43   81 1
  83   43   82 1
  84   44   46 1
  85   45   46 1
  86   45   83 1
  87   45   84 1
  88   45   85 1
  89   46   86 1
  90   46   87 1
  91   47   48 2
  92   47   49 2

#	End of record

