#	Name: ASD04910229
#	Creating user name:	WinNT
#	Creation time:	15. 06. 2019 20:55

#	Modifying user name:	WinNT
#	Modification time:	15. 06. 2019 20:55

#	Program:	/corina/corina34_cracker 3.40 0067  02.08.2006

@<TRIPOS>MOLECULE
ASD04910229
  59   60    0    0    0
SMALL
NO_CHARGES


@<TRIPOS>ATOM
   1 C1             0.0627    -0.0855     0.8561 C.3     
   2 C2             0.3585    -0.7691    -0.4803 C.3     
   3 C3             1.4318    -1.8407    -0.2785 C.3     
   4 S4            -1.1560    -1.5417    -1.1127 S.o     
   5 O5            -1.7585    -2.3147    -0.0838 O.2     
   6 N6            -2.1912    -0.2587    -1.2694 N.am    
   7 C7             0.8586     0.2706    -1.4853 C.3     
   8 C8            -3.5159    -0.4547    -1.8635 C.3     
   9 C9            -4.5263     0.4618    -1.1706 C.3     
  10 C10           -4.6308     0.0805     0.3075 C.3     
  11 C11           -5.5314     1.0839     1.0306 C.3     
  12 C12           -5.2282    -1.3226     0.4312 C.3     
  13 C13           -3.4618    -0.1229    -3.3325 C.ar    
  14 C14           -4.1496    -0.9048    -4.2423 C.ar    
  15 C15           -4.1018    -0.6032    -5.5893 C.ar    
  16 C16           -3.3627     0.4865    -6.0295 C.ar    
  17 C17           -2.6735     1.2700    -5.1136 C.ar    
  18 C18           -2.7290     0.9662    -3.7673 C.ar    
  19 N19           -3.3119     0.7949    -7.3960 N.pl3   
  20 N20           -2.9830    -0.0916    -8.4296 N.2     
  21 C21           -3.0442     0.5603    -9.5628 C.2     
  22 C22           -3.4136     1.8817    -9.2886 C.2     
  23 C23           -3.5775     1.9993    -7.9505 C.2     
  24 C24           -3.6016     2.9787   -10.3046 C.3     
  25 F25           -3.3494     2.4761   -11.5856 F       
  26 F26           -4.9160     3.4535   -10.2404 F       
  27 F27           -2.7139     4.0248   -10.0310 F       
  28 C28           -1.8701     2.4537    -5.5872 C.3     
  29 C29           -4.8509    -1.4564    -6.5803 C.3     
  30 H30            0.9728     0.3787     1.2360 H       
  31 H31           -0.7019     0.6779     0.7123 H       
  32 H32           -0.2935    -0.8262     1.5721 H       
  33 H33            1.0755    -2.5814     0.4374 H       
  34 H34            1.6425    -2.3277    -1.2306 H       
  35 H35            2.3418    -1.3765     0.1014 H       
  36 H36           -1.9205     0.6226    -0.9679 H       
  37 H37            1.7686     0.7348    -1.1054 H       
  38 H38            1.0693    -0.2164    -2.4374 H       
  39 H39            0.0940     1.0340    -1.6291 H       
  40 H40           -3.8209    -1.4935    -1.7366 H       
  41 H41           -4.1962     1.4970    -1.2563 H       
  42 H42           -5.5018     0.3510    -1.6442 H       
  43 H43           -3.6379     0.0936     0.7571 H       
  44 H44           -6.5243     1.0708     0.5809 H       
  45 H45           -5.6059     0.8122     2.0836 H       
  46 H46           -5.1058     2.0835     0.9424 H       
  47 H47           -4.5866    -2.0375    -0.0839 H       
  48 H48           -5.3026    -1.5943     1.4842 H       
  49 H49           -6.2210    -1.3357    -0.0184 H       
  50 H50           -4.7244    -1.7523    -3.8993 H       
  51 H51           -2.1962     1.5774    -3.0540 H       
  52 H52           -2.8435     0.1492   -10.5411 H       
  53 H53           -3.8663     2.8949    -7.4204 H       
  54 H54           -2.4843     3.3528    -5.5382 H       
  55 H55           -0.9943     2.5767    -4.9501 H       
  56 H56           -1.5505     2.2876    -6.6160 H       
  57 H57           -5.8219    -1.0062    -6.7865 H       
  58 H58           -4.2788    -1.5258    -7.5055 H       
  59 H59           -4.9937    -2.4543    -6.1657 H       
@<TRIPOS>BOND
   1    1    2 1
   2    1   30 1
   3    1   31 1
   4    1   32 1
   5    2    3 1
   6    2    4 1
   7    2    7 1
   8    3   33 1
   9    3   34 1
  10    3   35 1
  11    4    5 2
  12    4    6 am
  13    6    8 1
  14    6   36 1
  15    7   37 1
  16    7   38 1
  17    7   39 1
  18    8    9 1
  19    8   13 1
  20    8   40 1
  21    9   10 1
  22    9   41 1
  23    9   42 1
  24   10   11 1
  25   10   12 1
  26   10   43 1
  27   11   44 1
  28   11   45 1
  29   11   46 1
  30   12   47 1
  31   12   48 1
  32   12   49 1
  33   13   14 ar
  34   13   18 ar
  35   14   15 ar
  36   14   50 1
  37   15   16 ar
  38   15   29 1
  39   16   17 ar
  40   16   19 1
  41   17   18 ar
  42   17   28 1
  43   18   51 1
  44   19   20 1
  45   19   23 1
  46   20   21 2
  47   21   22 1
  48   21   52 1
  49   22   23 2
  50   22   24 1
  51   23   53 1
  52   24   25 1
  53   24   26 1
  54   24   27 1
  55   28   54 1
  56   28   55 1
  57   28   56 1
  58   29   57 1
  59   29   58 1
  60   29   59 1

#	End of record

