#	Name: ASD01900753
#	Creating user name:	WinNT
#	Creation time:	15. 06. 2019 19:52

#	Modifying user name:	WinNT
#	Modification time:	15. 06. 2019 19:52

#	Program:	/corina/corina34_cracker 3.40 0067  02.08.2006

@<TRIPOS>MOLECULE
ASD01900753
  52   56    0    0    0
SMALL
NO_CHARGES


@<TRIPOS>ATOM
   1 C1            -0.0159     1.4086    -0.1141 C.ar    
   2 C2             0.0117     0.0195    -0.1182 C.ar    
   3 C3            -1.1603    -0.7072    -0.0664 C.ar    
   4 C4            -2.3833    -0.0522    -0.0091 C.ar    
   5 C5            -2.4090     1.3491    -0.0094 C.ar    
   6 O6            -3.5357    -0.7543     0.0537 O.3     
   7 C7            -4.7272    -0.1808    -0.1861 C.2     
   8 C8            -4.9048     1.1620    -0.2023 C.2     
   9 C9            -3.7318     2.0226     0.0390 C.2     
  10 C10           -5.8918    -1.0510    -0.4431 C.2     
  11 N11           -7.1164    -0.4756    -0.6898 N.2     
  12 C12           -8.2316    -1.0983    -0.3906 C.2     
  13 C13           -8.0508    -2.4485     0.1934 C.3     
  14 C14           -6.9817    -3.1881    -0.6809 C.3     
  15 C15           -5.7244    -2.4019    -0.4354 C.2     
  16 C16           -1.2278     2.0774    -0.0543 C.ar    
  17 C17           -9.1612    -3.3796     0.4482 C.2     
  18 C18           -8.8211    -4.6709     0.5280 C.2     
  19 S19           -7.0622    -4.7790     0.2202 S.3     
  20 O20            1.1469     2.1118    -0.1631 O.3     
  21 C21            2.3594     1.3575    -0.2174 C.3     
  22 C22            3.5529     2.3134    -0.2672 C.3     
  23 C23            4.8511     1.5058    -0.3252 C.3     
  24 C24            6.0267     2.4474    -0.3743 C.ar    
  25 C25            6.6320     2.8884     0.7925 C.ar    
  26 C26            7.7083     3.7513     0.7083 C.ar    
  27 N27            8.1592     4.1548    -0.4634 N.ar    
  28 C28            7.6084     3.7561    -1.5932 C.ar    
  29 C29            6.5323     2.8888    -1.5875 C.ar    
  30 N30           -3.8496     3.3057     0.2814 N.2     
  31 O31           -2.7125     4.0635     0.6525 O.3     
  32 H32            0.9594    -0.4965    -0.1628 H       
  33 H33           -1.1262    -1.7867    -0.0707 H       
  34 H34           -5.8788     1.5906    -0.3866 H       
  35 H35           -9.2052    -0.6613    -0.5565 H       
  36 H36           -7.5719    -2.2971     1.1608 H       
  37 H37           -7.2411    -3.2585    -1.7372 H       
  38 H38           -4.7672    -2.8707    -0.2609 H       
  39 H39           -1.2538     3.1570    -0.0506 H       
  40 H40          -10.1811    -3.0435     0.5632 H       
  41 H41           -9.4856    -5.4957     0.7390 H       
  42 H42            2.4352     0.7274     0.6689 H       
  43 H43            2.3580     0.7311    -1.1094 H       
  44 H44            3.4770     2.9435    -1.1534 H       
  45 H45            3.5542     2.9398     0.6249 H       
  46 H46            4.9270     0.8758     0.5610 H       
  47 H47            4.8498     0.8795    -1.2173 H       
  48 H48            6.2669     2.5620     1.7551 H       
  49 H49            8.1854     4.0994     1.6125 H       
  50 H50            8.0051     4.1083    -2.5339 H       
  51 H51            6.0856     2.5656    -2.5162 H       
  52 H52           -2.8980     4.9994     0.8105 H       
@<TRIPOS>BOND
   1    1    2 ar
   2    1   20 1
   3    1   16 ar
   4    2    3 ar
   5    2   32 1
   6    3    4 ar
   7    3   33 1
   8    4    5 ar
   9    4    6 1
  10    5   16 ar
  11    5    9 1
  12    6    7 1
  13    7    8 2
  14    7   10 1
  15    8    9 1
  16    8   34 1
  17    9   30 2
  18   10   11 1
  19   10   15 2
  20   11   12 2
  21   12   13 1
  22   12   35 1
  23   13   14 1
  24   13   17 1
  25   13   36 1
  26   14   15 1
  27   14   19 1
  28   14   37 1
  29   15   38 1
  30   16   39 1
  31   17   18 2
  32   17   40 1
  33   18   19 1
  34   18   41 1
  35   20   21 1
  36   21   22 1
  37   21   42 1
  38   21   43 1
  39   22   23 1
  40   22   44 1
  41   22   45 1
  42   23   24 1
  43   23   46 1
  44   23   47 1
  45   24   25 ar
  46   24   29 ar
  47   25   26 ar
  48   25   48 1
  49   26   27 ar
  50   26   49 1
  51   27   28 ar
  52   28   29 ar
  53   28   50 1
  54   29   51 1
  55   30   31 1
  56   31   52 1

#	End of record

