#	Name: ASD01411273
#	Creating user name:	WinNT
#	Creation time:	15. 06. 2019 19:19

#	Modifying user name:	WinNT
#	Modification time:	15. 06. 2019 19:19

#	Program:	/corina/corina34_cracker 3.40 0067  02.08.2006

@<TRIPOS>MOLECULE
ASD01411273
 112  119    0    0    0
SMALL
NO_CHARGES


@<TRIPOS>ATOM
   1 C1             0.0693     2.3227    -0.0197 C.ar    
   2 C2            -0.0233     0.9181    -0.0749 C.ar    
   3 C3            -1.2854     0.3068    -0.0939 C.ar    
   4 C4            -2.4108     1.0649    -0.0418 C.ar    
   5 C5            -2.3343     2.4744     0.0289 C.ar    
   6 C6            -1.0881     3.0871     0.0207 C.ar    
   7 N7             1.4123     2.6474    -0.0096 N.pl3   
   8 C8             2.1445     1.4855    -0.0619 C.2     
   9 C9             1.2996     0.4210    -0.0996 C.2     
  10 C10            1.9545     4.0062     0.0478 C.3     
  11 C11            1.3246     4.7680     1.1861 C.2     
  12 N12            1.4744     6.1169     1.2336 N.am    
  13 O13            0.6994     4.1851     2.0456 O.2     
  14 C14            0.8072     6.8464     2.3252 C.3     
  15 C15           -0.4831     7.4717     1.7865 C.3     
  16 C16           -1.5785     7.3158     2.8072 C.2     
  17 C17           -3.5970     3.2147     0.1088 C.2     
  18 O18           -4.6263     2.5510    -0.0015 O.2     
  19 N19           -3.7616     4.5313     0.3087 N.am    
  20 C20           -2.7976     7.0081     2.4470 C.2     
  21 C21           -3.1488     6.7980     0.9978 C.3     
  22 C22           -2.6265     5.4343     0.5363 C.3     
  23 C23            3.6196     1.3847    -0.0775 C.ar    
  24 C24            4.3097     1.3858    -1.2936 C.ar    
  25 C25            1.7080    -1.0285    -0.1563 C.3     
  26 C26            1.1562    -1.7621     1.0678 C.3     
  27 C27            1.5708    -3.2337     1.0102 C.3     
  28 C28            1.0105    -3.8720    -0.2624 C.3     
  29 C29            1.5623    -3.1385    -1.4864 C.3     
  30 C30            1.1477    -1.6668    -1.4289 C.3     
  31 C31            5.6875     1.2915    -1.3024 C.ar    
  32 C32            6.3855     1.1957    -0.1065 C.ar    
  33 C33            5.7024     1.1944     1.1034 C.ar    
  34 C34            4.3281     1.2940     1.1222 C.ar    
  35 O35            7.7407     1.1026    -0.1190 O.3     
  36 C36            8.3961     1.0070     1.1472 C.3     
  37 C37            9.8853     0.9125     0.9361 C.ar    
  38 C38           10.3967     0.8212    -0.3428 C.ar    
  39 C39           11.7690     0.7346    -0.5374 C.ar    
  40 C40           12.6268     0.7394     0.5542 C.ar    
  41 C41           12.1155     0.8303     1.8337 C.ar    
  42 C42           10.7437     0.9232     2.0282 C.ar    
  43 N43           10.2256     1.0157     3.3243 N.3     
  44 N44           12.2881     0.6419    -1.8360 N.am    
  45 C45           11.4701     0.5072    -3.0471 C.3     
  46 C46           10.6595     2.2580     3.9772 C.3     
  47 C47            9.9302     2.4089     5.3165 C.3     
  48 N48           10.1424     1.1853     6.1045 N.am    
  49 C49            9.8593    -0.1101     5.4680 C.3     
  50 C50           10.5913    -0.1618     4.1228 C.3     
  51 C51           12.4373     0.0108    -4.1445 C.3     
  52 C52           13.7972     0.5332    -3.6262 C.3     
  53 C53           13.5988     0.6706    -2.1327 C.2     
  54 O54           14.4927     0.7829    -1.3205 O.2     
  55 S55           10.6852     1.2640     7.6670 S.o2    
  56 C56            9.1746     1.3663     8.6663 C.3     
  57 O57           11.3370     0.0185     7.8747 O.2     
  58 O58           11.4061     2.4871     7.7264 O.2     
  59 F59            3.6301     1.4786    -2.4576 F       
  60 H60           -1.3633    -0.7694    -0.1519 H       
  61 H61           -3.3799     0.5880    -0.0548 H       
  62 H62           -0.9924     4.1611     0.0284 H       
  63 H63            3.0326     3.9793     0.1931 H       
  64 H64            1.7338     4.5200    -0.8901 H       
  65 H65            2.0057     6.5852     0.5697 H       
  66 H66            0.5690     6.1605     3.1367 H       
  67 H67            1.4656     7.6331     2.6939 H       
  68 H68           -0.3157     8.5314     1.5902 H       
  69 H69           -0.7636     6.9727     0.8600 H       
  70 H70           -1.3542     7.4614     3.8569 H       
  71 H71           -4.6708     4.9012     0.3051 H       
  72 H72           -3.5658     6.9040     3.2032 H       
  73 H73           -4.2320     6.8295     0.8784 H       
  74 H74           -2.6966     7.5835     0.3932 H       
  75 H75           -1.9748     5.0241     1.3078 H       
  76 H76           -2.0692     5.5652    -0.3924 H       
  77 H77            2.7957    -1.0995    -0.1627 H       
  78 H78            1.5554    -1.3073     1.9744 H       
  79 H79            0.0685    -1.6910     1.0742 H       
  80 H80            2.6585    -3.3047     1.0038 H       
  81 H81            1.1777    -3.7563     1.8823 H       
  82 H82            1.3059    -4.9204    -0.3033 H       
  83 H83           -0.0771    -3.8010    -0.2560 H       
  84 H84            2.6500    -3.2095    -1.4928 H       
  85 H85            1.1632    -3.5932    -2.3930 H       
  86 H86            0.0600    -1.5958    -1.4225 H       
  87 H87            1.5408    -1.1442    -2.3009 H       
  88 H88            6.2223     1.2918    -2.2406 H       
  89 H89            6.2500     1.1193     2.0312 H       
  90 H90            3.7989     1.2931     2.0637 H       
  91 H91            8.1689     1.8919     1.7417 H       
  92 H92            8.0463     0.1176     1.6712 H       
  93 H93            9.7296     0.8167    -1.1921 H       
  94 H94           13.6939     0.6717     0.4027 H       
  95 H95           12.7828     0.8334     2.6829 H       
  96 H96           10.6757    -0.2217    -2.8866 H       
  97 H97           11.0469     1.4723    -3.3256 H       
  98 H98           11.7350     2.2212     4.1508 H       
  99 H99           10.4229     3.1075     3.3365 H       
 100 H100          10.3309     3.2665     5.8570 H       
 101 H101           8.8641     2.5499     5.1390 H       
 102 H102          10.2130    -0.9179     6.1087 H       
 103 H103           8.7863    -0.2113     5.3051 H       
 104 H104          10.3053    -1.0673     3.5876 H       
 105 H105          11.6677    -0.1649     4.2943 H       
 106 H106          12.4345    -1.0776    -4.2038 H       
 107 H107          12.1919     0.4531    -5.1100 H       
 108 H108          14.5893    -0.1831    -3.8443 H       
 109 H109          14.0266     1.5032    -4.0675 H       
 110 H110           8.5631     0.4810     8.4920 H       
 111 H111           9.4404     1.4223     9.7219 H       
 112 H112           8.6128     2.2571     8.3853 H       
@<TRIPOS>BOND
   1    1    2 ar
   2    1    7 1
   3    1    6 ar
   4    2    3 ar
   5    2    9 1
   6    3    4 ar
   7    3   60 1
   8    4    5 ar
   9    4   61 1
  10    5    6 ar
  11    5   17 1
  12    6   62 1
  13    7    8 1
  14    7   10 1
  15    8    9 2
  16    8   23 1
  17    9   25 1
  18   10   11 1
  19   10   63 1
  20   10   64 1
  21   11   12 am
  22   11   13 2
  23   12   14 1
  24   12   65 1
  25   14   15 1
  26   14   66 1
  27   14   67 1
  28   15   16 1
  29   15   68 1
  30   15   69 1
  31   16   20 2
  32   16   70 1
  33   17   18 2
  34   17   19 am
  35   19   22 1
  36   19   71 1
  37   20   21 1
  38   20   72 1
  39   21   22 1
  40   21   73 1
  41   21   74 1
  42   22   75 1
  43   22   76 1
  44   23   24 ar
  45   23   34 ar
  46   24   31 ar
  47   24   59 1
  48   25   26 1
  49   25   30 1
  50   25   77 1
  51   26   27 1
  52   26   78 1
  53   26   79 1
  54   27   28 1
  55   27   80 1
  56   27   81 1
  57   28   29 1
  58   28   82 1
  59   28   83 1
  60   29   30 1
  61   29   84 1
  62   29   85 1
  63   30   86 1
  64   30   87 1
  65   31   32 ar
  66   31   88 1
  67   32   33 ar
  68   32   35 1
  69   33   34 ar
  70   33   89 1
  71   34   90 1
  72   35   36 1
  73   36   37 1
  74   36   91 1
  75   36   92 1
  76   37   38 ar
  77   37   42 ar
  78   38   39 ar
  79   38   93 1
  80   39   40 ar
  81   39   44 1
  82   40   41 ar
  83   40   94 1
  84   41   42 ar
  85   41   95 1
  86   42   43 1
  87   43   46 1
  88   43   50 1
  89   44   45 1
  90   44   53 am
  91   45   51 1
  92   45   96 1
  93   45   97 1
  94   46   47 1
  95   46   98 1
  96   46   99 1
  97   47   48 1
  98   47  100 1
  99   47  101 1
 100   48   49 1
 101   48   55 am
 102   49   50 1
 103   49  102 1
 104   49  103 1
 105   50  104 1
 106   50  105 1
 107   51   52 1
 108   51  106 1
 109   51  107 1
 110   52   53 1
 111   52  108 1
 112   52  109 1
 113   53   54 2
 114   55   56 1
 115   55   57 2
 116   55   58 2
 117   56  110 1
 118   56  111 1
 119   56  112 1

#	End of record

