#	Name: ASD03430353
#	Creating user name:	WinNT
#	Creation time:	15. 06. 2019 20:40

#	Modifying user name:	WinNT
#	Modification time:	15. 06. 2019 20:40

#	Program:	/corina/corina34_cracker 3.40 0067  02.08.2006

@<TRIPOS>MOLECULE
ASD03430353
  46   50    0    0    0
SMALL
NO_CHARGES


@<TRIPOS>ATOM
   1 C1            -0.0167     1.3799     0.0096 C.ar    
   2 C2             0.0021    -0.0041     0.0020 C.ar    
   3 C3             1.2035    -0.6800    -0.0138 C.ar    
   4 C4             2.4083     0.0167    -0.0091 C.ar    
   5 C5             2.3825     1.4082    -0.0064 C.ar    
   6 C6             1.1781     2.0840     0.0020 C.ar    
   7 O7             3.4722    -0.8356     0.0057 O.3     
   8 C8             1.5543    -2.1432    -0.0522 C.3     
   9 C9             3.0423    -2.1397    -0.4294 C.3     
  10 C10            0.4280    -3.8679     0.9861 C.ar    
  11 C11            1.3111    -2.8260     1.2605 C.ar    
  12 C12            0.7281    -2.8991    -1.0533 C.2     
  13 N13            0.1075    -3.8835    -0.3734 N.am    
  14 O14            0.6374    -2.6688    -2.2406 O.2     
  15 C15            1.7659    -2.6142     2.5426 C.ar    
  16 C16            1.3481    -3.4394     3.5719 C.ar    
  17 C17            0.4730    -4.4777     3.3108 C.ar    
  18 C18            0.0135    -4.6935     2.0278 C.ar    
  19 C19           -0.7976    -4.8573    -0.9889 C.3     
  20 C20           -2.2291    -4.3186    -0.9500 C.3     
  21 C21           -2.3315    -3.0713    -1.8332 C.3     
  22 F22           -1.1942     2.0422     0.0188 F       
  23 F23            1.1638     3.4350     0.0028 F       
  24 C24           -3.1926    -5.3856    -1.4786 C.3     
  25 C25           -4.6111    -4.8107    -1.5099 C.3     
  26 O26           -4.6297    -3.6358    -2.3232 O.3     
  27 C27           -3.7832    -2.5858    -1.8508 C.3     
  28 H28           -0.9265    -0.5556     0.0089 H       
  29 H29            3.3094     1.9625    -0.0108 H       
  30 H30            3.1687    -2.2494    -1.5065 H       
  31 H31            3.5791    -2.9228     0.1061 H       
  32 H32            2.4492    -1.8028     2.7453 H       
  33 H33            1.7053    -3.2730     4.5775 H       
  34 H34            0.1477    -5.1220     4.1142 H       
  35 H35           -0.6703    -5.5058     1.8308 H       
  36 H36           -0.5007    -5.0255    -2.0241 H       
  37 H37           -0.7480    -5.7973    -0.4393 H       
  38 H38           -2.4949    -4.0634     0.0759 H       
  39 H39           -1.6899    -2.2870    -1.4316 H       
  40 H40           -2.0171    -3.3166    -2.8477 H       
  41 H41           -2.8957    -5.6776    -2.4859 H       
  42 H42           -3.1669    -6.2564    -0.8235 H       
  43 H43           -5.2945    -5.5512    -1.9255 H       
  44 H44           -4.9227    -4.5564    -0.4968 H       
  45 H45           -4.0840    -2.3024    -0.8421 H       
  46 H46           -3.8702    -1.7235    -2.5119 H       
@<TRIPOS>BOND
   1    1    2 ar
   2    1    6 ar
   3    1   22 1
   4    2    3 ar
   5    2   28 1
   6    3    4 ar
   7    3    8 1
   8    4    5 ar
   9    4    7 1
  10    5    6 ar
  11    5   29 1
  12    6   23 1
  13    7    9 1
  14    8    9 1
  15    8   11 1
  16    8   12 1
  17    9   30 1
  18    9   31 1
  19   10   11 ar
  20   10   13 1
  21   10   18 ar
  22   11   15 ar
  23   12   13 am
  24   12   14 2
  25   13   19 1
  26   15   16 ar
  27   15   32 1
  28   16   17 ar
  29   16   33 1
  30   17   18 ar
  31   17   34 1
  32   18   35 1
  33   19   20 1
  34   19   36 1
  35   19   37 1
  36   20   24 1
  37   20   21 1
  38   20   38 1
  39   21   27 1
  40   21   39 1
  41   21   40 1
  42   24   25 1
  43   24   41 1
  44   24   42 1
  45   25   26 1
  46   25   43 1
  47   25   44 1
  48   26   27 1
  49   27   45 1
  50   27   46 1

#	End of record

