#	Name: ASD01730038
#	Creating user name:	WinNT
#	Creation time:	15. 06. 2019 19:23

#	Modifying user name:	WinNT
#	Modification time:	15. 06. 2019 19:23

#	Program:	/corina/corina34_cracker 3.40 0067  02.08.2006

@<TRIPOS>MOLECULE
ASD01730038
  43   44    0    0    0
SMALL
NO_CHARGES


@<TRIPOS>ATOM
   1 C1             0.0272     1.8750     0.1816 C.2     
   2 C2             0.6747     0.5608     0.5345 C.3     
   3 N3             0.7506     2.9652     0.1177 N.2     
   4 N4            -1.3077     1.9282    -0.0761 N.pl3   
   5 C5            -2.0921     0.6924    -0.1353 C.3     
   6 C6            -2.6316     0.3636     1.2582 C.3     
   7 C7            -3.4509    -0.9271     1.1964 C.3     
   8 C8            -1.9605     3.2214    -0.2946 C.3     
   9 C9            -1.9190     3.5685    -1.7841 C.3     
  10 C10           -2.6009     4.9191    -2.0122 C.3     
  11 S11            4.1577     4.0778     1.6300 S.3     
  12 C12            2.8402     4.2037     0.3828 C.3     
  13 C13            2.0731     2.9100     0.3579 C.2     
  14 N14            2.6039     1.7526     0.5528 N.2     
  15 C15            3.9101     1.4799     0.8056 C.ar    
  16 C16            4.7799     2.4557     1.3183 C.ar    
  17 C17            4.4098     0.1979     0.5537 C.ar    
  18 C18            5.7330    -0.0923     0.8126 C.ar    
  19 C19            6.5798     0.8762     1.3226 C.ar    
  20 C20            6.1041     2.1510     1.5747 C.ar    
  21 H21            1.1575     0.6435     1.5083 H       
  22 H22           -0.0848    -0.2203     0.5708 H       
  23 H23            1.4196     0.3085    -0.2201 H       
  24 H24           -2.9252     0.8235    -0.8258 H       
  25 H25           -1.4583    -0.1241    -0.4814 H       
  26 H26           -1.7985     0.2325     1.9488 H       
  27 H27           -3.2654     1.1800     1.6043 H       
  28 H28           -3.8353    -1.1613     2.1892 H       
  29 H29           -4.2840    -0.7960     0.5059 H       
  30 H30           -2.8171    -1.7435     0.8503 H       
  31 H31           -2.9975     3.1654     0.0367 H       
  32 H32           -1.4390     3.9922     0.2728 H       
  33 H33           -0.8821     3.6245    -2.1153 H       
  34 H34           -2.4406     2.7978    -2.3515 H       
  35 H35           -2.5713     5.1664    -3.0733 H       
  36 H36           -3.6378     4.8631    -1.6809 H       
  37 H37           -2.0793     5.6899    -1.4448 H       
  38 H38            2.1687     5.0223     0.6418 H       
  39 H39            3.2810     4.3857    -0.5974 H       
  40 H40            3.7583    -0.5661     0.1561 H       
  41 H41            6.1117    -1.0845     0.6160 H       
  42 H42            7.6135     0.6368     1.5238 H       
  43 H43            6.7659     2.9066     1.9715 H       
@<TRIPOS>BOND
   1    1    2 1
   2    1    3 2
   3    1    4 1
   4    2   21 1
   5    2   22 1
   6    2   23 1
   7    3   13 1
   8    4    5 1
   9    4    8 1
  10    5    6 1
  11    5   24 1
  12    5   25 1
  13    6    7 1
  14    6   26 1
  15    6   27 1
  16    7   28 1
  17    7   29 1
  18    7   30 1
  19    8    9 1
  20    8   31 1
  21    8   32 1
  22    9   10 1
  23    9   33 1
  24    9   34 1
  25   10   35 1
  26   10   36 1
  27   10   37 1
  28   11   12 1
  29   11   16 1
  30   12   13 1
  31   12   38 1
  32   12   39 1
  33   13   14 2
  34   14   15 1
  35   15   16 ar
  36   15   17 ar
  37   16   20 ar
  38   17   18 ar
  39   17   40 1
  40   18   19 ar
  41   18   41 1
  42   19   20 ar
  43   19   42 1
  44   20   43 1

#	End of record

