#	Name: ASD01940163
#	Creating user name:	WinNT
#	Creation time:	15. 06. 2019 20:11

#	Modifying user name:	WinNT
#	Modification time:	15. 06. 2019 20:11

#	Program:	/corina/corina34_cracker 3.40 0067  02.08.2006

@<TRIPOS>MOLECULE
ASD01940163
  40   42    0    0    0
SMALL
NO_CHARGES


@<TRIPOS>ATOM
   1 I1             2.7949    -4.5904    -1.6206 I       
   2 F2             1.9017     1.5990     2.2851 F       
   3 C3             1.0631     2.1512     1.3812 C.ar    
   4 C4             1.3877     2.1344     0.0313 C.ar    
   5 C5             0.5190     2.7050    -0.8976 C.ar    
   6 C6            -0.6650     3.2867    -0.4696 C.ar    
   7 C7            -0.9828     3.3009     0.8760 C.ar    
   8 C8            -0.1244     2.7297     1.8000 C.ar    
   9 N9             2.5858     1.5457    -0.3962 N.pl3   
  10 N10            0.8417     2.6914    -2.2612 N.am    
  11 C11            2.6329     0.1759    -0.6692 C.ar    
  12 C12            1.4778    -0.5904    -0.5857 C.ar    
  13 C13            1.5273    -1.9441    -0.8566 C.ar    
  14 C14            2.7256    -2.5370    -1.2108 C.ar    
  15 C15            3.8790    -1.7771    -1.2948 C.ar    
  16 C16            3.8353    -0.4217    -1.0307 C.ar    
  17 Cl17           5.2825     0.5314    -1.1361 Cl      
  18 F18           -0.4425     2.7414     3.1130 F       
  19 S19            0.4249     3.9730    -3.2235 S.o2    
  20 O20            0.9902     3.6595    -4.4890 O.2     
  21 O21           -0.9815     4.0922    -3.0587 O.2     
  22 C22           -0.3292     7.0880    -3.0243 C.3     
  23 C23           -0.5255     8.5984    -3.1686 C.3     
  24 C24           -1.0709     7.6505    -4.2386 C.3     
  25 C25            1.2755     5.3925    -2.4804 C.3     
  26 O26            0.9859     6.5703    -3.2360 O.3     
  27 H27           -1.3392     3.7293    -1.1879 H       
  28 H28           -1.9053     3.7548     1.2067 H       
  29 H29            3.3823     2.0891    -0.5026 H       
  30 H30            1.3091     1.9313    -2.6414 H       
  31 H31            0.5416    -0.1285    -0.3088 H       
  32 H32            0.6292    -2.5404    -0.7914 H       
  33 H33            4.8133    -2.2431    -1.5710 H       
  34 H34           -0.9205     6.5737    -2.2668 H       
  35 H35           -1.2462     9.0778    -2.5063 H       
  36 H36            0.3485     9.1973    -3.4250 H       
  37 H37           -0.5558     7.6257    -5.1989 H       
  38 H38           -2.1505     7.5062    -4.2801 H       
  39 H39            0.9322     5.5254    -1.4545 H       
  40 H40            2.3507     5.2141    -2.4835 H       
@<TRIPOS>BOND
   1    1   14 1
   2    2    3 1
   3    3    4 ar
   4    3    8 ar
   5    4    5 ar
   6    4    9 1
   7    5    6 ar
   8    5   10 1
   9    6    7 ar
  10    6   27 1
  11    7    8 ar
  12    7   28 1
  13    8   18 1
  14    9   11 1
  15    9   29 1
  16   10   19 am
  17   10   30 1
  18   11   12 ar
  19   11   16 ar
  20   12   13 ar
  21   12   31 1
  22   13   14 ar
  23   13   32 1
  24   14   15 ar
  25   15   16 ar
  26   15   33 1
  27   16   17 1
  28   19   20 2
  29   19   21 2
  30   19   25 1
  31   22   23 1
  32   22   26 1
  33   22   24 1
  34   22   34 1
  35   23   24 1
  36   23   35 1
  37   23   36 1
  38   24   37 1
  39   24   38 1
  40   25   26 1
  41   25   39 1
  42   25   40 1

#	End of record

