#	Name: ASD01900193
#	Creating user name:	WinNT
#	Creation time:	15. 06. 2019 19:51

#	Modifying user name:	WinNT
#	Modification time:	15. 06. 2019 19:51

#	Program:	/corina/corina34_cracker 3.40 0067  02.08.2006

@<TRIPOS>MOLECULE
ASD01900193
  33   36    0    0    0
SMALL
NO_CHARGES


@<TRIPOS>ATOM
   1 N1            -0.0167     1.3827     0.0096 N.pl3   
   2 S2            -1.2941    -1.1088     0.1226 S.3     
   3 C3             0.0699    -0.0014    -0.0081 C.2     
   4 N4             1.1691    -0.6832    -0.1240 N.2     
   5 C5             1.0637    -2.0003    -0.1381 C.2     
   6 C6             2.1433    -3.0089    -0.4028 C.2     
   7 C7             1.8817    -4.0992    -1.2575 C.2     
   8 C8             0.6050    -4.2432    -2.0285 C.3     
   9 C9            -0.5725    -4.6971    -1.1485 C.3     
  10 C10           -0.5117    -3.9304     0.1820 C.3     
  11 C11           -0.1942    -2.4754     0.0346 C.2     
  12 N12            2.9405    -4.8560    -1.2584 N.2     
  13 N13            3.9196    -4.2513    -0.4536 N.pl3   
  14 C14            3.4028    -3.1046     0.0539 C.2     
  15 C15            1.1435     2.1531     0.0091 C.ar    
  16 C16            1.0507     3.5377    -0.0857 C.ar    
  17 C17            2.2103     4.2917    -0.0852 C.ar    
  18 C18            3.4304     3.6317     0.0106 C.ar    
  19 C19            3.4475     2.2524     0.1018 C.ar    
  20 N20            2.3235     1.5609     0.1042 N.ar    
  21 F21            4.5865     4.3308     0.0142 F       
  22 H22           -0.8854     1.8142     0.0184 H       
  23 H23            0.3568    -3.2829    -2.4806 H       
  24 H24            0.7539    -4.9753    -2.8222 H       
  25 H25           -1.5131    -4.4786    -1.6543 H       
  26 H26           -0.4960    -5.7676    -0.9581 H       
  27 H27           -1.4755    -4.0263     0.6820 H       
  28 H28            0.2497    -4.3896     0.8125 H       
  29 H29            4.8119    -4.5945    -0.2893 H       
  30 H30            3.9077    -2.4025     0.7009 H       
  31 H31            0.0860     4.0177    -0.1590 H       
  32 H32            2.1690     5.3685    -0.1579 H       
  33 H33            4.3924     1.7346     0.1761 H       
@<TRIPOS>BOND
   1    1    3 1
   2    1   15 1
   3    1   22 1
   4    2    3 1
   5    2   11 1
   6    3    4 2
   7    4    5 1
   8    5    6 1
   9    5   11 2
  10    6    7 1
  11    6   14 2
  12    7    8 1
  13    7   12 2
  14    8    9 1
  15    8   23 1
  16    8   24 1
  17    9   10 1
  18    9   25 1
  19    9   26 1
  20   10   11 1
  21   10   27 1
  22   10   28 1
  23   12   13 1
  24   13   14 1
  25   13   29 1
  26   14   30 1
  27   15   16 ar
  28   15   20 ar
  29   16   17 ar
  30   16   31 1
  31   17   18 ar
  32   17   32 1
  33   18   19 ar
  34   18   21 1
  35   19   20 ar
  36   19   33 1

#	End of record

