#	Name: ASD05170041
#	Creating user name:	WinNT
#	Creation time:	15. 06. 2019 20:57

#	Modifying user name:	WinNT
#	Modification time:	15. 06. 2019 20:57

#	Program:	/corina/corina34_cracker 3.40 0067  02.08.2006

@<TRIPOS>MOLECULE
ASD05170041
  42   46    0    0    0
SMALL
NO_CHARGES


@<TRIPOS>ATOM
   1 C1            -0.0178     1.4608     0.0101 C.3     
   2 N2             0.0021    -0.0041     0.0020 N.am    
   3 C3             0.0055    -0.6555    -1.1610 C.2     
   4 O4            -0.0902     0.0073    -2.1753 O.2     
   5 C5             0.1166    -2.1147    -1.3118 C.ar    
   6 N6             0.9012    -2.5512    -2.3071 N.ar    
   7 C7             1.0896    -3.8230    -2.5551 C.ar    
   8 C8             0.4747    -4.7979    -1.7830 C.ar    
   9 C9            -0.3443    -4.4094    -0.7431 C.ar    
  10 C10           -0.5329    -3.0364    -0.4976 C.ar    
  11 C11           -1.4295    -2.6847     0.6266 C.ar    
  12 C12           -2.5795    -3.4592     0.8160 C.ar    
  13 C13           -3.4373    -3.1840     1.8736 C.ar    
  14 C14           -3.1491    -2.1363     2.7473 C.ar    
  15 C15           -2.0193    -1.3683     2.5505 C.ar    
  16 C16           -1.1702    -1.6316     1.4899 C.ar    
  17 C17            0.0240    -0.7324     1.2697 C.3     
  18 C18            1.3785    -1.1908     1.8101 C.3     
  19 C19            0.6340    -0.0369     2.4863 C.3     
  20 C20           -4.6580    -4.0032     2.0728 C.ar    
  21 C21           -5.5159    -3.7171     3.1323 C.ar    
  22 C22           -6.6514    -4.4890     3.3062 C.ar    
  23 C23           -6.8921    -5.5248     2.4120 C.ar    
  24 F24           -7.9894    -6.3014     2.5465 F       
  25 C25           -5.9955    -5.7526     1.3807 C.ar    
  26 N26           -4.9254    -4.9981     1.2369 N.ar    
  27 H27            1.0048     1.8381     0.0023 H       
  28 H28           -0.5450     1.8219    -0.8730 H       
  29 H29           -0.5280     1.8123     0.9069 H       
  30 H30            1.7321    -4.1170    -3.3718 H       
  31 H31            0.6345    -5.8451    -1.9931 H       
  32 H32           -0.8335    -5.1483    -0.1258 H       
  33 H33           -2.8001    -4.2718     0.1396 H       
  34 H34           -3.8089    -1.9258     3.5761 H       
  35 H35           -1.7964    -0.5575     3.2283 H       
  36 H36            1.4138    -2.1444     2.3367 H       
  37 H37            2.2639    -0.9439     1.2242 H       
  38 H38            1.0298     0.9688     2.3452 H       
  39 H39            0.1797    -0.2317     3.4577 H       
  40 H40           -5.2977    -2.9042     3.8090 H       
  41 H41           -7.3346    -4.2909     4.1189 H       
  42 H42           -6.1783    -6.5568     0.6834 H       
@<TRIPOS>BOND
   1    1    2 1
   2    1   27 1
   3    1   28 1
   4    1   29 1
   5    2   17 1
   6    2    3 am
   7    3    4 2
   8    3    5 1
   9    5   10 ar
  10    5    6 ar
  11    6    7 ar
  12    7    8 ar
  13    7   30 1
  14    8    9 ar
  15    8   31 1
  16    9   10 ar
  17    9   32 1
  18   10   11 1
  19   11   16 ar
  20   11   12 ar
  21   12   13 ar
  22   12   33 1
  23   13   14 ar
  24   13   20 1
  25   14   15 ar
  26   14   34 1
  27   15   16 ar
  28   15   35 1
  29   16   17 1
  30   17   19 1
  31   17   18 1
  32   18   19 1
  33   18   36 1
  34   18   37 1
  35   19   38 1
  36   19   39 1
  37   20   26 ar
  38   20   21 ar
  39   21   22 ar
  40   21   40 1
  41   22   23 ar
  42   22   41 1
  43   23   24 1
  44   23   25 ar
  45   25   26 ar
  46   25   42 1

#	End of record

