#	Name: ASD01811954
#	Creating user name:	WinNT
#	Creation time:	15. 06. 2019 19:27

#	Modifying user name:	WinNT
#	Modification time:	15. 06. 2019 19:27

#	Program:	/corina/corina34_cracker 3.40 0067  02.08.2006

@<TRIPOS>MOLECULE
ASD01811954
  50   54    0    0    0
SMALL
NO_CHARGES


@<TRIPOS>ATOM
   1 C1             0.1973     1.4827     0.5426 C.3     
   2 C2             0.3512    -0.0230     0.6570 C.3     
   3 C3            -0.7918    -0.7713    -0.0165 C.3     
   4 N4            -0.8379    -0.3739    -1.4326 N.3     
   5 C5            -1.2484     1.0259    -1.5400 C.3     
   6 C6             1.9182     2.2428    -0.7234 C.2     
   7 O7             1.5440     2.0782     0.5593 O.3     
   8 C8            -0.3395     1.9634    -0.7979 C.3     
   9 N9             0.8657     2.3112    -1.5619 N.am    
  10 C10            1.6505    -0.4321     0.0124 C.2     
  11 C11            2.6701    -1.0588     0.6264 C.2     
  12 C12            3.6794    -1.2480    -0.3455 C.2     
  13 C13            3.2161    -0.7256    -1.4952 C.2     
  14 O14            1.9845    -0.2380    -1.2739 O.3     
  15 C15           -1.1019     3.2677    -0.5561 C.3     
  16 C16           -2.2995     3.1136     0.3962 C.3     
  17 C17           -0.4637     4.1643     0.5180 C.3     
  18 C18           -1.8918     4.4672     1.0015 C.3     
  19 O19            3.0758     2.3212    -1.0846 O.2     
  20 H20            0.3800    -0.2965     1.7117 H       
  21 C21            0.9146     2.6689    -2.9817 C.3     
  22 C22            1.2365     1.4435    -3.7977 C.ar    
  23 C23            2.8468    -0.0695    -4.7198 C.ar    
  24 C24            2.5516     1.0545    -3.9713 C.ar    
  25 C25            0.2163     0.7053    -4.3680 C.ar    
  26 C26            0.5116    -0.4187    -5.1165 C.ar    
  27 C27            1.8270    -0.8042    -5.2952 C.ar    
  28 H28           -0.4016     1.8678     1.3680 H       
  29 H29           -0.6205    -1.8452     0.0572 H       
  30 H30           -1.7339    -0.5134     0.4672 H       
  31 H31            0.0541    -0.5244    -1.8796 H       
  32 H32           -1.2597     1.3084    -2.5927 H       
  33 H33           -2.2578     1.1270    -1.1412 H       
  34 H34            2.7103    -1.3593     1.6630 H       
  35 H35            4.6384    -1.7209    -0.1937 H       
  36 H36            3.7436    -0.7053    -2.4374 H       
  37 H37           -1.3432     3.7943    -1.4794 H       
  38 H38           -3.2650     3.1345    -0.1094 H       
  39 H39           -2.2016     2.2781     1.0894 H       
  40 H40            0.1361     3.6160     1.2444 H       
  41 H41            0.0529     5.0333     0.1107 H       
  42 H42           -2.3486     5.3231     0.5047 H       
  43 H43           -1.9862     4.5065     2.0867 H       
  44 H44           -0.0523     3.0669    -3.2897 H       
  45 H45            1.6851     3.4235    -3.1399 H       
  46 H46            3.8743    -0.3732    -4.8557 H       
  47 H47            3.3483     1.6290    -3.5224 H       
  48 H48           -0.8114     1.0065    -4.2284 H       
  49 H49           -0.2855    -0.9959    -5.5615 H       
  50 H50            2.0577    -1.6824    -5.8800 H       
@<TRIPOS>BOND
   1    1    2 1
   2    1    7 1
   3    1    8 1
   4    1   28 1
   5    2    3 1
   6    2   10 1
   7    2   20 1
   8    3    4 1
   9    3   29 1
  10    3   30 1
  11    4    5 1
  12    4   31 1
  13    5    8 1
  14    5   32 1
  15    5   33 1
  16    6    7 1
  17    6    9 am
  18    6   19 2
  19    8    9 1
  20    8   15 1
  21    9   21 1
  22   10   11 2
  23   10   14 1
  24   11   12 1
  25   11   34 1
  26   12   13 2
  27   12   35 1
  28   13   14 1
  29   13   36 1
  30   15   16 1
  31   15   17 1
  32   15   37 1
  33   16   18 1
  34   16   38 1
  35   16   39 1
  36   17   18 1
  37   17   40 1
  38   17   41 1
  39   18   42 1
  40   18   43 1
  41   21   22 1
  42   21   44 1
  43   21   45 1
  44   22   25 ar
  45   22   24 ar
  46   23   24 ar
  47   23   27 ar
  48   23   46 1
  49   24   47 1
  50   25   26 ar
  51   25   48 1
  52   26   27 ar
  53   26   49 1
  54   27   50 1

#	End of record

