#	Name: ASD00310173
#	Creating user name:	WinNT
#	Creation time:	15. 06. 2019 18:33

#	Modifying user name:	WinNT
#	Modification time:	15. 06. 2019 18:33

#	Program:	/corina/corina34_cracker 3.40 0067  02.08.2006

@<TRIPOS>MOLECULE
ASD00310173
  23   24    0    0    0
SMALL
NO_CHARGES


@<TRIPOS>ATOM
   1 O1            -0.0175     1.4400     0.0100 O.3     
   2 C2             0.0021    -0.0041     0.0020 C.3     
   3 C3             1.1520    -0.3885     0.9592 C.3     
   4 C4             2.0729     0.8522     0.9571 C.3     
   5 C5             1.3704     1.8394    -0.0011 C.3     
   6 C6            -1.3078    -0.5493     0.5100 C.ar    
   7 C7            -1.8111    -1.7294    -0.0047 C.ar    
   8 C8            -3.0122    -2.2301     0.4612 C.ar    
   9 C9            -3.7106    -1.5501     1.4427 C.ar    
  10 C10           -3.2066    -0.3693     1.9574 C.ar    
  11 C11           -2.0028     0.1279     1.4946 C.ar    
  12 Br12          -5.3543    -2.2343     2.0801 Br      
  13 H13            0.2045    -0.3753    -1.0026 H       
  14 H14            0.7676    -0.5771     1.9616 H       
  15 H15            1.6861    -1.2612     0.5835 H       
  16 H16            2.1438     1.2770     1.9584 H       
  17 H17            3.0622     0.5929     0.5803 H       
  18 H18            1.7827     1.7510    -1.0063 H       
  19 H19            1.4741     2.8613     0.3638 H       
  20 H20           -1.2660    -2.2601    -0.7713 H       
  21 H21           -3.4056    -3.1519     0.0588 H       
  22 H22           -3.7517     0.1621     2.7234 H       
  23 H23           -1.6071     1.0477     1.8994 H       
@<TRIPOS>BOND
   1    1    2 1
   2    1    5 1
   3    2    3 1
   4    2    6 1
   5    2   13 1
   6    3    4 1
   7    3   14 1
   8    3   15 1
   9    4    5 1
  10    4   16 1
  11    4   17 1
  12    5   18 1
  13    5   19 1
  14    6    7 ar
  15    6   11 ar
  16    7    8 ar
  17    7   20 1
  18    8    9 ar
  19    8   21 1
  20    9   10 ar
  21    9   12 1
  22   10   11 ar
  23   10   22 1
  24   11   23 1

#	End of record

