#	Name: ASD01870124
#	Creating user name:	WinNT
#	Creation time:	15. 06. 2019 19:38

#	Modifying user name:	WinNT
#	Modification time:	15. 06. 2019 19:38

#	Program:	/corina/corina34_cracker 3.40 0067  02.08.2006

@<TRIPOS>MOLECULE
ASD01870124
  42   44    0    0    0
SMALL
NO_CHARGES


@<TRIPOS>ATOM
   1 C1            -0.1643     1.4977     0.5861 C.3     
   2 C2            -0.1478    -0.0092     0.5853 C.2     
   3 N3            -1.1558    -0.6938     0.0094 N.am    
   4 O4             0.7726    -0.6059     1.1030 O.2     
   5 C5            -1.0869    -2.0888    -0.0915 C.ar    
   6 C6            -2.2422    -2.8511     0.0215 C.ar    
   7 C7             0.1359    -2.7097    -0.3102 C.ar    
   8 C8             0.2035    -4.0848    -0.4101 C.ar    
   9 C9            -0.9509    -4.8471    -0.2923 C.ar    
  10 C10           -2.1742    -4.2262    -0.0784 C.ar    
  11 N11           -0.8820    -6.2448    -0.3943 N.am    
  12 C12           -0.5256    -6.8722    -1.5219 C.2     
  13 C13           -1.1618    -7.0606     0.6297 C.2     
  14 C14           -0.9902    -8.4963     0.1836 C.3     
  15 C15           -0.5545    -8.3672    -1.2902 C.3     
  16 O16           -1.4987    -6.7053     1.7387 O.2     
  17 O17           -0.2275    -6.3288    -2.5638 O.2     
  18 C18            0.3977    -8.9655    -0.2573 C.3     
  19 C19            1.5972    -8.1174     0.1706 C.3     
  20 C20            0.6456   -10.4741    -0.3170 C.3     
  21 C21            1.0850     2.0210     1.2977 C.3     
  22 C22           -0.1813     2.0084    -0.8560 C.3     
  23 H23           -1.0540     1.8511     1.1072 H       
  24 H24           -1.9290    -0.2202    -0.3353 H       
  25 H25           -3.1938    -2.3682     0.1879 H       
  26 H26            1.0338    -2.1167    -0.4025 H       
  27 H27            1.1544    -4.5677    -0.5802 H       
  28 H28           -3.0720    -4.8194     0.0132 H       
  29 H29           -1.7344    -9.2223     0.5111 H       
  30 H30           -0.9710    -8.9954    -2.0777 H       
  31 H31            1.2442    -7.1844     0.6098 H       
  32 H32            2.1857    -8.6656     0.9063 H       
  33 H33            2.2160    -7.8982    -0.6995 H       
  34 H34            1.0708   -10.7343    -1.2863 H       
  35 H35            1.3401   -10.7598     0.4730 H       
  36 H36           -0.2977   -11.0029    -0.1803 H       
  37 H37            1.9748     1.6677     0.7767 H       
  38 H38            1.0731     3.1110     1.2983 H       
  39 H39            1.0971     1.6572     2.3252 H       
  40 H40           -1.0713     1.6356    -1.3630 H       
  41 H41           -0.1931     3.0983    -0.8554 H       
  42 H42            0.7085     1.6550    -1.3771 H       
@<TRIPOS>BOND
   1    1    2 1
   2    1   21 1
   3    1   22 1
   4    1   23 1
   5    2    3 am
   6    2    4 2
   7    3    5 1
   8    3   24 1
   9    5    6 ar
  10    5    7 ar
  11    6   10 ar
  12    6   25 1
  13    7    8 ar
  14    7   26 1
  15    8    9 ar
  16    8   27 1
  17    9   10 ar
  18    9   11 1
  19   10   28 1
  20   11   12 am
  21   11   13 am
  22   12   17 2
  23   12   15 1
  24   13   16 2
  25   13   14 1
  26   14   15 1
  27   14   18 1
  28   14   29 1
  29   15   18 1
  30   15   30 1
  31   18   19 1
  32   18   20 1
  33   19   31 1
  34   19   32 1
  35   19   33 1
  36   20   34 1
  37   20   35 1
  38   20   36 1
  39   21   37 1
  40   21   38 1
  41   21   39 1
  42   22   40 1
  43   22   41 1
  44   22   42 1

#	End of record

