#	Name: ASD03092088
#	Creating user name:	WinNT
#	Creation time:	15. 06. 2019 20:31

#	Modifying user name:	WinNT
#	Modification time:	15. 06. 2019 20:31

#	Program:	/corina/corina34_cracker 3.40 0067  02.08.2006

@<TRIPOS>MOLECULE
ASD03092088
  53   55    0    0    0
SMALL
NO_CHARGES


@<TRIPOS>ATOM
   1 N1             0.4463     1.8803     1.2145 N.am    
   2 C2             0.4187     0.5121     1.1359 C.2     
   3 C3            -0.8787     0.1419     0.9403 C.2     
   4 C4            -1.6572     1.3097     0.8990 C.2     
   5 N5            -0.8673     2.3437     1.0678 N.2     
   6 N6            -3.0415     1.3617     0.7144 N.pl3   
   7 C7            -3.7005     2.5936     0.7144 C.ar    
   8 C8            -4.9998     2.6876     1.1978 C.ar    
   9 C9            -5.6511     3.9059     1.1977 C.ar    
  10 C10           -5.0130     5.0335     0.7174 C.ar    
  11 C11           -3.0559     3.7269     0.2367 C.ar    
  12 C12            1.5817    -0.3950     1.2429 C.ar    
  13 C13            1.5411     2.6430     1.4049 C.2     
  14 C14            2.4310    -0.3475     2.3542 C.ar    
  15 C15            3.5043    -1.2121     2.4130 C.ar    
  16 N16            3.7345    -2.0736     1.4406 N.ar    
  17 C17            2.9589    -2.1513     0.3757 C.ar    
  18 C18            1.8604    -1.3291     0.2381 C.ar    
  19 C19            3.2744    -3.1568    -0.7016 C.3     
  20 C20           -3.7148     4.9459     0.2336 C.ar    
  21 N21            1.4438     3.9863     1.3533 N.am    
  22 C22            2.6337     4.8154     1.5602 C.3     
  23 C23            0.9808    -1.4256    -0.9818 C.3     
  24 O24            2.6158     2.1196     1.6232 O.2     
  25 C25            2.2513     6.2928     1.4508 C.3     
  26 O26           -3.0888     6.0559    -0.2383 O.3     
  27 C27           -1.7174     5.9165    -0.6151 C.3     
  28 C28           -7.0605     4.0052     1.7220 C.3     
  29 F29           -7.0296     4.2857     3.0922 F       
  30 F30           -7.7364     5.0302     1.0513 F       
  31 F31           -7.7238     2.7920     1.5091 F       
  32 H32           -1.2428    -0.8694     0.8353 H       
  33 H33           -3.5448     0.5425     0.5862 H       
  34 H34           -5.5009     1.8077     1.5734 H       
  35 H35           -5.5252     5.9844     0.7180 H       
  36 H36           -2.0444     3.6576    -0.1354 H       
  37 H37            2.2491     0.3556     3.1535 H       
  38 H38            4.1655    -1.1831     3.2665 H       
  39 H39            2.7642    -4.0950    -0.4836 H       
  40 H40            2.9367    -2.7749    -1.6651 H       
  41 H41            4.3504    -3.3276    -0.7353 H       
  42 H42            0.5859     4.4041     1.1790 H       
  43 H43            3.0456     4.6191     2.5501 H       
  44 H44            3.3797     4.5760     0.8023 H       
  45 H45            0.1954    -2.1606    -0.8061 H       
  46 H46            0.5305    -0.4536    -1.1828 H       
  47 H47            1.5805    -1.7324    -1.8388 H       
  48 H48            1.8394     6.4890     0.4609 H       
  49 H49            1.5054     6.5321     2.2087 H       
  50 H50            3.1367     6.9096     1.6047 H       
  51 H51           -1.1480     5.5208     0.2259 H       
  52 H52           -1.6404     5.2322    -1.4600 H       
  53 H53           -1.3177     6.8902    -0.8985 H       
@<TRIPOS>BOND
   1    1    2 1
   2    1   13 am
   3    1    5 1
   4    2    3 2
   5    2   12 1
   6    3    4 1
   7    3   32 1
   8    4    5 2
   9    4    6 1
  10    6    7 1
  11    6   33 1
  12    7    8 ar
  13    7   11 ar
  14    8    9 ar
  15    8   34 1
  16    9   10 ar
  17    9   28 1
  18   10   20 ar
  19   10   35 1
  20   11   20 ar
  21   11   36 1
  22   12   14 ar
  23   12   18 ar
  24   13   21 am
  25   13   24 2
  26   14   15 ar
  27   14   37 1
  28   15   16 ar
  29   15   38 1
  30   16   17 ar
  31   17   18 ar
  32   17   19 1
  33   18   23 1
  34   19   39 1
  35   19   40 1
  36   19   41 1
  37   20   26 1
  38   21   22 1
  39   21   42 1
  40   22   25 1
  41   22   43 1
  42   22   44 1
  43   23   45 1
  44   23   46 1
  45   23   47 1
  46   25   48 1
  47   25   49 1
  48   25   50 1
  49   26   27 1
  50   27   51 1
  51   27   52 1
  52   27   53 1
  53   28   29 1
  54   28   30 1
  55   28   31 1

#	End of record

