#	Name: ASD00530002
#	Creating user name:	WinNT
#	Creation time:	15. 06. 2019 18:36

#	Modifying user name:	WinNT
#	Modification time:	15. 06. 2019 18:36

#	Program:	/corina/corina34_cracker 3.40 0067  02.08.2006

@<TRIPOS>MOLECULE
ASD00530002
  27   27    0    0    0
SMALL
NO_CHARGES


@<TRIPOS>ATOM
   1 C1            -0.0184     1.5028     0.0103 C.3     
   2 C2             0.0021    -0.0041     0.0020 C.2     
   3 N3            -1.1558    -0.6938     0.0094 N.am    
   4 O4             1.0605    -0.5961    -0.0113 O.2     
   5 C5            -1.1360    -2.1586     0.0013 C.3     
   6 C6            -2.5713    -2.6882     0.0122 C.3     
   7 S7            -2.5467    -4.5020     0.0022 S.3     
   8 O8             1.3223     1.9974     0.0002 O.3     
   9 C9             1.4821     3.3474     0.0059 C.ar    
  10 C10            2.7569     3.8964    -0.0033 C.ar    
  11 C11            2.9168     5.2697     0.0020 C.ar    
  12 C12            1.8072     6.0958     0.0166 C.ar    
  13 C13            0.5358     5.5498     0.0258 C.ar    
  14 C14            0.3715     4.1782     0.0152 C.ar    
  15 Cl15           4.1492     2.8596    -0.0210 Cl      
  16 Cl16           2.0103     7.8199     0.0239 Cl      
  17 H17           -0.5455     1.8639    -0.8728 H       
  18 H18           -0.5286     1.8543     0.9071 H       
  19 H19           -2.0023    -0.2203     0.0200 H       
  20 H20           -0.6258    -2.5101    -0.8955 H       
  21 H21           -0.6088    -2.5197     0.8844 H       
  22 H22           -3.0815    -2.3367     0.9090 H       
  23 H23           -3.0985    -2.3271    -0.8709 H       
  24 H24           -3.8530    -4.8224     0.0129 H       
  25 H25            3.9084     5.6976    -0.0048 H       
  26 H26           -0.3290     6.1967     0.0371 H       
  27 H27           -0.6212     3.7529     0.0223 H       
@<TRIPOS>BOND
   1    1    2 1
   2    1    8 1
   3    1   17 1
   4    1   18 1
   5    2    3 am
   6    2    4 2
   7    3    5 1
   8    3   19 1
   9    5    6 1
  10    5   20 1
  11    5   21 1
  12    6    7 1
  13    6   22 1
  14    6   23 1
  15    7   24 1
  16    8    9 1
  17    9   10 ar
  18    9   14 ar
  19   10   11 ar
  20   10   15 1
  21   11   12 ar
  22   11   25 1
  23   12   13 ar
  24   12   16 1
  25   13   14 ar
  26   13   26 1
  27   14   27 1

#	End of record

