#	Name: ASD01915497
#	Creating user name:	WinNT
#	Creation time:	15. 06. 2019 20:05

#	Modifying user name:	WinNT
#	Modification time:	15. 06. 2019 20:05

#	Program:	/corina/corina34_cracker 3.40 0067  02.08.2006

@<TRIPOS>MOLECULE
ASD01915497
  49   51    0    0    0
SMALL
NO_CHARGES


@<TRIPOS>ATOM
   1 C1            -0.0167     1.3802     0.0096 C.ar    
   2 C2             0.0021    -0.0041     0.0020 C.ar    
   3 C3             1.2112    -0.6790    -0.0132 C.ar    
   4 C4             2.3973     0.0297    -0.0207 C.ar    
   5 C5             2.3773     1.4122    -0.0131 C.ar    
   6 C6             1.1711     2.0869     0.0021 C.ar    
   7 C7             3.7133    -0.7045    -0.0367 C.3     
   8 O8             4.1167    -0.9298    -1.3889 O.3     
   9 C9             5.2916    -1.5853    -1.5813 C.ar    
  10 C10            6.0508    -2.0087    -0.5002 C.ar    
  11 N11            7.1901    -2.6370    -0.6880 N.ar    
  12 C12            7.6706    -2.8970    -1.8978 C.ar    
  13 C13            6.9632    -2.5170    -3.0164 C.ar    
  14 C14            5.7535    -1.8498    -2.8647 C.ar    
  15 C15            9.0033    -3.5961    -1.9789 C.3     
  16 C16            9.1883    -4.2571    -3.3436 C.3     
  17 N17            8.8296    -3.2731    -4.3781 N.am    
  18 C18            7.4370    -2.8129    -4.4159 C.3     
  19 C19            9.7438    -2.8131    -5.2551 C.2     
  20 O20            9.3862    -1.9131    -6.1904 O.3     
  21 O21           10.8908    -3.2106    -5.2015 O.2     
  22 C22           10.4229    -1.4619    -7.1015 C.3     
  23 F23           -1.1583    -0.6959     0.0098 F       
  24 C24           10.9790    -2.6594    -7.8745 C.3     
  25 C25            9.8322    -0.4497    -8.0851 C.3     
  26 C26           11.5497    -0.8012    -6.3049 C.3     
  27 H27           -0.9591     1.9076     0.0170 H       
  28 H28            1.2270    -1.7589    -0.0187 H       
  29 H29            3.3050     1.9653    -0.0186 H       
  30 H30            1.1567     3.1668     0.0080 H       
  31 H31            4.4690    -0.1069     0.4731 H       
  32 H32            3.6018    -1.6613     0.4734 H       
  33 H33            5.7029    -1.8201     0.5047 H       
  34 H34            5.1870    -1.5352    -3.7287 H       
  35 H35            9.7998    -2.8687    -1.8219 H       
  36 H36            9.0563    -4.3581    -1.2013 H       
  37 H37           10.2279    -4.5603    -3.4683 H       
  38 H38            8.5378    -5.1282    -3.4223 H       
  39 H39            6.8101    -3.5891    -4.8547 H       
  40 H40            7.3701    -1.9083    -5.0204 H       
  41 H41           10.1763    -3.1301    -8.4421 H       
  42 H42           11.7573    -2.3207    -8.5584 H       
  43 H43           11.3998    -3.3805    -7.1738 H       
  44 H44            9.4360     0.4034    -7.5343 H       
  45 H45           10.6104    -0.1109    -8.7690 H       
  46 H46            9.0294    -0.9204    -8.6526 H       
  47 H47           11.9705    -1.5223    -5.6042 H       
  48 H48           12.3279    -0.4625    -6.9888 H       
  49 H49           11.1535     0.0519    -5.7541 H       
@<TRIPOS>BOND
   1    1    2 ar
   2    1    6 ar
   3    1   27 1
   4    2    3 ar
   5    2   23 1
   6    3    4 ar
   7    3   28 1
   8    4    5 ar
   9    4    7 1
  10    5    6 ar
  11    5   29 1
  12    6   30 1
  13    7    8 1
  14    7   31 1
  15    7   32 1
  16    8    9 1
  17    9   10 ar
  18    9   14 ar
  19   10   11 ar
  20   10   33 1
  21   11   12 ar
  22   12   13 ar
  23   12   15 1
  24   13   14 ar
  25   13   18 1
  26   14   34 1
  27   15   16 1
  28   15   35 1
  29   15   36 1
  30   16   17 1
  31   16   37 1
  32   16   38 1
  33   17   18 1
  34   17   19 am
  35   18   39 1
  36   18   40 1
  37   19   20 1
  38   19   21 2
  39   20   22 1
  40   22   24 1
  41   22   25 1
  42   22   26 1
  43   24   41 1
  44   24   42 1
  45   24   43 1
  46   25   44 1
  47   25   45 1
  48   25   46 1
  49   26   47 1
  50   26   48 1
  51   26   49 1

#	End of record

