#	Name: ASD01885454
#	Creating user name:	WinNT
#	Creation time:	15. 06. 2019 19:49

#	Modifying user name:	WinNT
#	Modification time:	15. 06. 2019 19:49

#	Program:	/corina/corina34_cracker 3.40 0067  02.08.2006

@<TRIPOS>MOLECULE
ASD01885454
  39   41    0    0    0
SMALL
NO_CHARGES


@<TRIPOS>ATOM
   1 C1            -0.0169     1.3919     0.0097 C.ar    
   2 C2             0.0021    -0.0041     0.0020 C.ar    
   3 N3            -1.1141    -0.7732     0.0201 N.2     
   4 C4            -2.1908    -0.5679    -0.6468 C.2     
   5 C5            -2.3522     0.6326    -1.5420 C.3     
   6 C6            -2.2799     1.8710    -0.6849 C.2     
   7 N7            -1.1827     2.1467     0.0191 N.am    
   8 C8             1.1874     2.0914     0.0020 C.ar    
   9 C9             2.4012     1.4088    -0.0183 C.ar    
  10 C10            2.4112     0.0106    -0.0315 C.ar    
  11 C11            1.2375    -0.6788    -0.0216 C.ar    
  12 C12           -3.2991    -1.5327    -0.5342 C.ar    
  13 O13           -3.2293     2.6242    -0.6372 O.2     
  14 C14           -3.1950    -2.6666     0.2870 C.ar    
  15 C15           -4.2784    -3.5258     0.3407 C.ar    
  16 N16           -5.3621    -3.2664    -0.3663 N.ar    
  17 N17           -5.4653    -2.2330    -1.1190 N.ar    
  18 C18           -4.4961    -1.3477    -1.2385 C.ar    
  19 C19            3.6731     2.1591    -0.0264 C.2     
  20 O20            3.6619     3.3747    -0.0153 O.2     
  21 N21            4.8464     1.4961    -0.0460 N.am    
  22 C22            6.1083     2.2404    -0.0540 C.3     
  23 C23            7.2626     1.2718    -0.0761 C.2     
  24 C24            8.1717     1.3577    -1.0153 C.2     
  25 H25           -1.5520     0.6500    -2.2819 H       
  26 H26           -3.3182     0.5892    -2.0450 H       
  27 H27           -1.1997     2.9347     0.5845 H       
  28 H28            1.1799     3.1713     0.0114 H       
  29 H29            3.3503    -0.5224    -0.0498 H       
  30 H30            1.2543    -1.7586    -0.0321 H       
  31 H31           -2.2991    -2.8619     0.8577 H       
  32 H32           -4.2370    -4.4090     0.9610 H       
  33 H33           -4.6205    -0.4898    -1.8826 H       
  34 H34            4.8553     0.5262    -0.0548 H       
  35 H35            6.1499     2.8755    -0.9388 H       
  36 H36            6.1706     2.8595     0.8410 H       
  37 H37            7.3403     0.5069     0.6824 H       
  38 H38            8.0940     2.1226    -1.7738 H       
  39 H39            8.9990     0.6636    -1.0312 H       
@<TRIPOS>BOND
   1    1    2 ar
   2    1    8 ar
   3    1    7 1
   4    2    3 1
   5    2   11 ar
   6    3    4 2
   7    4    5 1
   8    4   12 1
   9    5    6 1
  10    5   25 1
  11    5   26 1
  12    6    7 am
  13    6   13 2
  14    7   27 1
  15    8    9 ar
  16    8   28 1
  17    9   10 ar
  18    9   19 1
  19   10   11 ar
  20   10   29 1
  21   11   30 1
  22   12   14 ar
  23   12   18 ar
  24   14   15 ar
  25   14   31 1
  26   15   16 ar
  27   15   32 1
  28   16   17 ar
  29   17   18 ar
  30   18   33 1
  31   19   20 2
  32   19   21 am
  33   21   22 1
  34   21   34 1
  35   22   23 1
  36   22   35 1
  37   22   36 1
  38   23   24 2
  39   23   37 1
  40   24   38 1
  41   24   39 1

#	End of record

