#	Name: ASD01900009
#	Creating user name:	WinNT
#	Creation time:	15. 06. 2019 19:51

#	Modifying user name:	WinNT
#	Modification time:	15. 06. 2019 19:51

#	Program:	/corina/corina34_cracker 3.40 0067  02.08.2006

@<TRIPOS>MOLECULE
ASD01900009
  35   37    0    0    0
SMALL
NO_CHARGES


@<TRIPOS>ATOM
   1 C1            -0.0168     1.3887     0.0097 C.ar    
   2 C2             0.0021    -0.0041     0.0020 C.ar    
   3 C3             1.1794    -0.6880    -0.0125 C.ar    
   4 C4             2.3946     0.0171    -0.0203 C.ar    
   5 C5             2.3754     1.4340    -0.0130 C.ar    
   6 C6             1.1414     2.1048     0.0025 C.ar    
   7 N7             3.5667    -0.6296    -0.0340 N.ar    
   8 C8             4.6927     0.0596    -0.0407 C.ar    
   9 C9             4.6687     1.4659    -0.0331 C.ar    
  10 N10            3.5294     2.1140    -0.0200 N.ar    
  11 C11            5.9648     2.2347    -0.0400 C.3     
  12 N12            5.9077    -0.6077    -0.0550 N.pl3   
  13 N13            5.9376    -2.0084    -0.0622 N.2     
  14 C14            7.0753    -2.6332    -0.0755 C.2     
  15 C15            7.1067    -4.1075    -0.0831 C.ar    
  16 C16            5.9138    -4.8344    -0.0760 C.ar    
  17 C17            5.9475    -6.2138    -0.0831 C.ar    
  18 C18            7.1589    -6.8802    -0.0968 C.ar    
  19 C19            8.3502    -6.1665    -0.1039 C.ar    
  20 C20            8.3290    -4.7825    -0.1032 C.ar    
  21 O21            9.5377    -6.8275    -0.1174 O.3     
  22 H22           -0.9637     1.9081     0.0170 H       
  23 H23           -0.9302    -0.5492     0.0080 H       
  24 H24            1.1791    -1.7680    -0.0176 H       
  25 H25            1.1113     3.1843     0.0078 H       
  26 H26            6.2687     2.4255    -1.0692 H       
  27 H27            5.8277     3.1828     0.4801 H       
  28 H28            6.7357     1.6519     0.4643 H       
  29 H29            6.7372    -0.1049    -0.0599 H       
  30 H30            7.9988    -2.0734    -0.0810 H       
  31 H31            4.9658    -4.3171    -0.0646 H       
  32 H32            5.0247    -6.7748    -0.0776 H       
  33 H33            7.1787    -7.9600    -0.1015 H       
  34 H34            9.2549    -4.2265    -0.1092 H       
  35 H35            9.8736    -7.0147    -1.0046 H       
@<TRIPOS>BOND
   1    1    2 ar
   2    1    6 ar
   3    1   22 1
   4    2    3 ar
   5    2   23 1
   6    3    4 ar
   7    3   24 1
   8    4    5 ar
   9    4    7 ar
  10    5    6 ar
  11    5   10 ar
  12    6   25 1
  13    7    8 ar
  14    8    9 ar
  15    8   12 1
  16    9   10 ar
  17    9   11 1
  18   11   26 1
  19   11   27 1
  20   11   28 1
  21   12   13 1
  22   12   29 1
  23   13   14 2
  24   14   15 1
  25   14   30 1
  26   15   16 ar
  27   15   20 ar
  28   16   17 ar
  29   16   31 1
  30   17   18 ar
  31   17   32 1
  32   18   19 ar
  33   18   33 1
  34   19   20 ar
  35   19   21 1
  36   20   34 1
  37   21   35 1

#	End of record

