#	Name: ASD08830256
#	Creating user name:	WinNT
#	Creation time:	15. 06. 2019 21:20

#	Modifying user name:	WinNT
#	Modification time:	15. 06. 2019 21:20

#	Program:	/corina/corina34_cracker 3.40 0067  02.08.2006

@<TRIPOS>MOLECULE
ASD08830256
  53   56    0    0    0
SMALL
NO_CHARGES


@<TRIPOS>ATOM
   1 C1            -0.2395     1.4701     0.1689 C.ar    
   2 C2            -0.2767     0.0943     0.2745 C.ar    
   3 C3             0.9088    -0.6273     0.4090 C.ar    
   4 C4             2.1287     0.0437     0.4361 C.ar    
   5 C5             2.1573     1.4263     0.3289 C.ar    
   6 C6             0.9708     2.1370     0.1956 C.ar    
   7 C7             0.8706    -2.1055     0.5235 C.ar    
   8 C8            -0.1770    -2.7384     1.1999 C.ar    
   9 C9            -0.1698    -4.1206     1.2802 C.ar    
  10 N10            0.8205    -4.7964     0.7191 N.ar    
  11 C11            1.8004    -4.1697     0.0844 C.ar    
  12 N12            1.8299    -2.8504    -0.0205 N.ar    
  13 N13            2.8180    -4.9150    -0.4891 N.pl3   
  14 N14            3.3799     2.1048     0.3560 N.am    
  15 C15            4.4802     1.5323    -0.1713 C.2     
  16 C16            5.7870     2.1946    -0.0431 C.2     
  17 C17            6.8729     1.6295    -0.5636 C.2     
  18 O18            4.3923     0.4678    -0.7532 O.2     
  19 Cl19          -1.4560    -1.8131     1.9220 Cl      
  20 C20            2.8665    -6.3014    -0.2934 C.ar    
  21 C21            3.3533    -7.1276    -1.2977 C.ar    
  22 C22            3.4008    -8.4941    -1.1051 C.ar    
  23 C23            2.9622    -9.0420     0.0932 C.ar    
  24 C24            2.4758    -8.2156     1.0977 C.ar    
  25 C25            2.4332    -6.8487     0.9070 C.ar    
  26 N26            3.0099   -10.4270     0.2883 N.3     
  27 C27            2.5002   -10.7895     1.6188 C.3     
  28 C28            2.5144   -12.3132     1.7671 C.3     
  29 O29            3.8422   -12.7964     1.5458 O.3     
  30 C30            4.3696   -12.4618     0.2593 C.3     
  31 C31            4.3743   -10.9396     0.0957 C.3     
  32 H32           -1.1587     2.0267     0.0606 H       
  33 H33           -1.2244    -0.4233     0.2532 H       
  34 H34            3.0496    -0.5107     0.5405 H       
  35 H35            0.9944     3.2136     0.1123 H       
  36 H36           -0.9632    -4.6417     1.7954 H       
  37 H37            3.4967    -4.4769    -1.0260 H       
  38 H38            3.4360     2.9875     0.7543 H       
  39 H39            5.8650     3.1397     0.4736 H       
  40 H40            7.8325     2.1159    -0.4695 H       
  41 H41            6.7949     0.6843    -1.0803 H       
  42 H42            3.6945    -6.7015    -2.2296 H       
  43 H43            3.7788    -9.1367    -1.8864 H       
  44 H44            2.1346    -8.6417     2.0296 H       
  45 H45            2.0553    -6.2060     1.6883 H       
  46 H46            3.1339   -10.3434     2.3853 H       
  47 H47            1.4799   -10.4225     1.7302 H       
  48 H48            2.1913   -12.5842     2.7722 H       
  49 H49            1.8391   -12.7564     1.0352 H       
  50 H50            5.3883   -12.8401     0.1739 H       
  51 H51            3.7483   -12.9093    -0.5165 H       
  52 H52            4.7220   -10.6820    -0.9047 H       
  53 H53            5.0379   -10.4958     0.8379 H       
@<TRIPOS>BOND
   1    1    2 ar
   2    1    6 ar
   3    1   32 1
   4    2    3 ar
   5    2   33 1
   6    3    4 ar
   7    3    7 1
   8    4    5 ar
   9    4   34 1
  10    5    6 ar
  11    5   14 1
  12    6   35 1
  13    7    8 ar
  14    7   12 ar
  15    8    9 ar
  16    8   19 1
  17    9   10 ar
  18    9   36 1
  19   10   11 ar
  20   11   12 ar
  21   11   13 1
  22   13   20 1
  23   13   37 1
  24   14   15 am
  25   14   38 1
  26   15   16 1
  27   15   18 2
  28   16   17 2
  29   16   39 1
  30   17   40 1
  31   17   41 1
  32   20   21 ar
  33   20   25 ar
  34   21   22 ar
  35   21   42 1
  36   22   23 ar
  37   22   43 1
  38   23   24 ar
  39   23   26 1
  40   24   25 ar
  41   24   44 1
  42   25   45 1
  43   26   27 1
  44   26   31 1
  45   27   28 1
  46   27   46 1
  47   27   47 1
  48   28   29 1
  49   28   48 1
  50   28   49 1
  51   29   30 1
  52   30   31 1
  53   30   50 1
  54   30   51 1
  55   31   52 1
  56   31   53 1

#	End of record

