#	Name: ASD02560292
#	Creating user name:	WinNT
#	Creation time:	15. 06. 2019 20:25

#	Modifying user name:	WinNT
#	Modification time:	15. 06. 2019 20:25

#	Program:	/corina/corina34_cracker 3.40 0067  02.08.2006

@<TRIPOS>MOLECULE
ASD02560292
  49   51    0    0    0
SMALL
NO_CHARGES


@<TRIPOS>ATOM
   1 N1             0.0588     1.3141     0.0029 N.ar    
   2 C2             0.0881    -0.0139    -0.0033 C.ar    
   3 C3             1.3220    -0.6621    -0.0050 C.ar    
   4 C4             2.4689     0.1096    -0.0003 C.ar    
   5 N5             2.3589     1.4300     0.0057 N.ar    
   6 C6             1.1765     2.0119     0.0072 C.ar    
   7 O7            -1.0641    -0.7275    -0.0073 O.3     
   8 C8            -2.2371    -0.0440    -0.0049 C.ar    
   9 C9            -4.6311     1.3513     0.0001 C.ar    
  10 C10           -4.0240     0.9971     1.2080 C.ar    
  11 C11           -2.8337     0.3041     1.2010 C.ar    
  12 C12           -2.8351     0.3103    -1.2083 C.ar    
  13 C13           -4.0249     1.0041    -1.2103 C.ar    
  14 C14           -2.1776    -0.0775     2.5029 C.3     
  15 C15           -2.1804    -0.0646    -2.5129 C.3     
  16 C16           -5.8687     2.0718     0.0026 C.1     
  17 N17           -6.8504     2.6433     0.0047 N.1     
  18 S18            1.0877     3.7717     0.0147 S.o2    
  19 C19            1.0628     4.2162     1.7732 C.3     
  20 C20            0.9870     5.7149     1.9115 C.2     
  21 N21            0.9569     6.2780     3.1356 N.am    
  22 C22            1.0052     7.6676     3.2664 C.ar    
  23 O23            0.9532     6.4143     0.9212 O.2     
  24 C24            1.7999     9.7942     2.4935 C.ar    
  25 C25            1.7496     8.4232     2.3680 C.ar    
  26 C26            0.3025     8.2939     4.2934 C.ar    
  27 C27            0.3482     9.6655     4.4243 C.ar    
  28 C28            1.1007    10.4266     3.5249 C.ar    
  29 O29            2.3062     4.1866    -0.5873 O.2     
  30 O30           -0.1646     4.0620    -0.5908 O.2     
  31 C31            1.1517    11.8515     3.6579 C.1     
  32 N32            1.1921    12.9818     3.7634 N.1     
  33 F33           -0.4245     7.5567     5.1613 F       
  34 H34            1.3806    -1.7405    -0.0096 H       
  35 H35            3.4425    -0.3579    -0.0011 H       
  36 H36           -4.4892     1.2635     2.1456 H       
  37 H37           -4.4908     1.2760    -2.1460 H       
  38 H38           -2.5364    -1.0576     2.8170 H       
  39 H39           -1.0965    -0.1124     2.3684 H       
  40 H40           -2.4252     0.6615     3.2649 H       
  41 H41           -2.5399    -1.0429    -2.8318 H       
  42 H42           -2.4286     0.6785    -3.2707 H       
  43 H43           -1.0992    -0.1005    -2.3797 H       
  44 H44            0.1938     3.7629     2.2503 H       
  45 H45            1.9715     3.8525     2.2528 H       
  46 H46            0.9016     5.7182     3.9258 H       
  47 H47            2.3793    10.3798     1.7952 H       
  48 H48            2.2898     7.9346     1.5706 H       
  49 H49           -0.1967    10.1513     5.2202 H       
@<TRIPOS>BOND
   1    1    2 ar
   2    1    6 ar
   3    2    3 ar
   4    2    7 1
   5    3    4 ar
   6    3   34 1
   7    4    5 ar
   8    4   35 1
   9    5    6 ar
  10    6   18 1
  11    7    8 1
  12    8   12 ar
  13    8   11 ar
  14    9   10 ar
  15    9   13 ar
  16    9   16 1
  17   10   11 ar
  18   10   36 1
  19   11   14 1
  20   12   13 ar
  21   12   15 1
  22   13   37 1
  23   14   38 1
  24   14   39 1
  25   14   40 1
  26   15   41 1
  27   15   42 1
  28   15   43 1
  29   16   17 3
  30   18   19 1
  31   18   29 2
  32   18   30 2
  33   19   20 1
  34   19   44 1
  35   19   45 1
  36   20   21 am
  37   20   23 2
  38   21   22 1
  39   21   46 1
  40   22   26 ar
  41   22   25 ar
  42   24   25 ar
  43   24   28 ar
  44   24   47 1
  45   25   48 1
  46   26   27 ar
  47   26   33 1
  48   27   28 ar
  49   27   49 1
  50   28   31 1
  51   31   32 3

#	End of record

