#	Name: ASD01880907
#	Creating user name:	WinNT
#	Creation time:	15. 06. 2019 19:41

#	Modifying user name:	WinNT
#	Modification time:	15. 06. 2019 19:41

#	Program:	/corina/corina34_cracker 3.40 0067  02.08.2006

@<TRIPOS>MOLECULE
ASD01880907
  54   57    0    0    0
SMALL
NO_CHARGES


@<TRIPOS>ATOM
   1 N1             0.0437     1.3483    -0.5148 N.ar    
   2 C2             0.0789     0.0415    -0.6763 C.ar    
   3 N3             1.1839    -0.6531    -0.4944 N.ar    
   4 C4             2.3165    -0.0540    -0.1376 C.ar    
   5 C5             2.3237     1.3235     0.0431 C.ar    
   6 C6             1.1359     2.0215    -0.1583 C.ar    
   7 C7             3.5844     2.0435     0.4471 C.3     
   8 O8             4.3025     2.4397    -0.7231 O.3     
   9 C9             5.4702     3.1047    -0.5337 C.ar    
  10 C10            6.2197     3.5195    -1.6303 C.ar    
  11 C11            7.4005     4.1925    -1.4373 C.ar    
  12 C12            7.8566     4.4650    -0.1433 C.ar    
  13 C13            7.0998     4.0466     0.9546 C.ar    
  14 C14            5.9135     3.3760     0.7553 C.ar    
  15 C15            8.4280     4.7668    -2.3806 C.3     
  16 N16            9.4683     5.3666    -1.5374 N.am    
  17 C17            9.1347     5.1902    -0.2474 C.2     
  18 O18            9.7938     5.5749     0.6991 O.2     
  19 C19            7.5790     4.3326     2.3545 C.3     
  20 N20            1.0912     3.3978     0.0090 N.pl3   
  21 C21           -0.1292     4.0736    -0.0812 C.ar    
  22 C22           -1.3008     3.4532     0.3335 C.ar    
  23 C23           -2.5047     4.1238     0.2435 C.ar    
  24 C24           -2.5447     5.4115    -0.2589 C.ar    
  25 C25           -1.3803     6.0319    -0.6732 C.ar    
  26 C26           -0.1722     5.3691    -0.5805 C.ar    
  27 C27           10.3795     7.5362    -2.2038 C.3     
  28 C28           10.6727     6.0456    -2.0219 C.3     
  29 O29            3.4478    -0.7773     0.0475 O.3     
  30 C30            3.3564    -2.1886    -0.1579 C.3     
  31 H31           -0.8240    -0.4756    -0.9658 H       
  32 H32            3.3269     2.9267     1.0318 H       
  33 H33            4.2059     1.3789     1.0472 H       
  34 H34            5.8731     3.3118    -2.6319 H       
  35 H35            5.3290     3.0533     1.6041 H       
  36 H36            8.8551     3.9753    -2.9965 H       
  37 H37            7.9721     5.5291    -3.0124 H       
  38 H38            7.1873     5.2953     2.6830 H       
  39 H39            7.2276     3.5491     3.0259 H       
  40 H40            8.6685     4.3601     2.3670 H       
  41 H41            1.9067     3.8913     0.1886 H       
  42 H42           -1.2702     2.4473     0.7257 H       
  43 H43           -3.4160     3.6418     0.5655 H       
  44 H44           -3.4875     5.9337    -0.3283 H       
  45 H45           -1.4150     7.0376    -1.0654 H       
  46 H46            0.7368     5.8542    -0.9042 H       
  47 H47           10.0791     7.9667    -1.2485 H       
  48 H48           11.2756     8.0414    -2.5642 H       
  49 H49            9.5749     7.6625    -2.9282 H       
  50 H50           11.4772     5.9193    -1.2974 H       
  51 H51           10.9731     5.6152    -2.9771 H       
  52 H52            3.0464    -2.3871    -1.1838 H       
  53 H53            4.3292    -2.6458     0.0227 H       
  54 H54            2.6238    -2.6092     0.5309 H       
@<TRIPOS>BOND
   1    1    2 ar
   2    1    6 ar
   3    2    3 ar
   4    2   31 1
   5    3    4 ar
   6    4    5 ar
   7    4   29 1
   8    5    6 ar
   9    5    7 1
  10    6   20 1
  11    7    8 1
  12    7   32 1
  13    7   33 1
  14    8    9 1
  15    9   10 ar
  16    9   14 ar
  17   10   11 ar
  18   10   34 1
  19   11   12 ar
  20   11   15 1
  21   12   13 ar
  22   12   17 1
  23   13   14 ar
  24   13   19 1
  25   14   35 1
  26   15   16 1
  27   15   36 1
  28   15   37 1
  29   16   17 am
  30   16   28 1
  31   17   18 2
  32   19   38 1
  33   19   39 1
  34   19   40 1
  35   20   21 1
  36   20   41 1
  37   21   22 ar
  38   21   26 ar
  39   22   23 ar
  40   22   42 1
  41   23   24 ar
  42   23   43 1
  43   24   25 ar
  44   24   44 1
  45   25   26 ar
  46   25   45 1
  47   26   46 1
  48   27   28 1
  49   27   47 1
  50   27   48 1
  51   27   49 1
  52   28   50 1
  53   28   51 1
  54   29   30 1
  55   30   52 1
  56   30   53 1
  57   30   54 1

#	End of record

