#	Name: ASD03731316
#	Creating user name:	WinNT
#	Creation time:	15. 06. 2019 20:45

#	Modifying user name:	WinNT
#	Modification time:	15. 06. 2019 20:45

#	Program:	/corina/corina34_cracker 3.40 0067  02.08.2006

@<TRIPOS>MOLECULE
ASD03731316
  77   84    0    0    0
SMALL
NO_CHARGES


@<TRIPOS>ATOM
   1 C1            -0.0180     1.4742     0.0101 C.2     
   2 C2             0.0021    -0.0041     0.0020 C.ar    
   3 C3             1.2184    -0.6885    -0.0133 C.ar    
   4 C4             1.2301    -2.0680    -0.0203 C.ar    
   5 C5             0.0396    -2.7730    -0.0127 C.ar    
   6 C6            -1.1695    -2.1007     0.0024 C.ar    
   7 C7            -1.1952    -0.7214     0.0154 C.ar    
   8 O8             1.0263     2.0963     0.0035 O.2     
   9 N9            -1.1942     2.1322     0.0193 N.am    
  10 C10            0.0601    -4.2798    -0.0215 C.3     
  11 O11           -2.0563    -1.5348     6.2775 O.3     
  12 C12           -2.2837    -1.6203     7.6967 C.3     
  13 O13           -2.7818    -2.9582     7.8836 O.3     
  14 C14           -2.2564    -3.6908     6.8579 C.ar    
  15 C15           -1.8113    -2.8150     5.8702 C.ar    
  16 C16           -2.1186    -5.0563     6.6848 C.ar    
  17 C17           -1.5385    -5.5652     5.5267 C.ar    
  18 C18           -1.1053    -4.6808     4.5435 C.ar    
  19 C19           -1.2356    -3.3185     4.7159 C.ar    
  20 O20           -1.2955    -6.8588     5.1692 O.3     
  21 C21           -0.5594    -5.5216     3.4206 C.3     
  22 C22           -1.0841    -6.9267     3.7458 C.3     
  23 N23            0.0802    -4.7759     1.3568 N.am    
  24 C24           -1.0278    -5.0465     2.0754 C.2     
  25 C25            0.9387    -5.4848     3.3560 C.ar    
  26 C26            1.9375    -5.7964     4.2513 C.ar    
  27 C27            3.2644    -5.6548     3.8860 C.ar    
  28 C28            3.5850    -5.1990     2.6202 C.ar    
  29 C29            2.5881    -4.8847     1.7202 C.ar    
  30 C30            1.2497    -5.0246     2.0792 C.ar    
  31 O31           -2.1775    -4.9294     1.7074 O.2     
  32 N32           -2.4574     6.0559     0.8915 N.3     
  33 C33           -2.5727     5.6226    -0.5068 C.3     
  34 C34           -2.5317     4.0942    -0.5736 C.3     
  35 C35           -1.2141     3.5970     0.0274 C.3     
  36 C36           -1.0964     4.1024     1.4679 C.3     
  37 C37           -1.1789     5.6306     1.4756 C.3     
  38 C38           -2.6316     7.5099     1.0082 C.3     
  39 C39           -2.7527     7.8862     2.4624 C.ar    
  40 C40           -1.6207     8.1961     3.1927 C.ar    
  41 C41           -1.7317     8.5413     4.5267 C.ar    
  42 C42           -2.9749     8.5770     5.1302 C.ar    
  43 C43           -4.1070     8.2681     4.3996 C.ar    
  44 C44           -3.9964     7.9271     3.0645 C.ar    
  45 H45            2.1484    -0.1393    -0.0199 H       
  46 H46            2.1706    -2.5988    -0.0321 H       
  47 H47           -2.0953    -2.6569     0.0083 H       
  48 H48           -2.1396    -0.1978     0.0318 H       
  49 H49           -2.0276     1.6358     0.0206 H       
  50 H50           -0.8299    -4.6523    -0.5288 H       
  51 H51            0.9498    -4.6281    -0.5460 H       
  52 H52           -1.3511    -1.4791     8.2431 H       
  53 H53           -3.0272    -0.8875     8.0102 H       
  54 H54           -2.4636    -5.7319     7.4534 H       
  55 H55           -0.8881    -2.6428     3.9484 H       
  56 H56           -0.3397    -7.6843     3.5007 H       
  57 H57           -2.0214    -7.1203     3.2241 H       
  58 H58            1.6849    -6.1520     5.2393 H       
  59 H59            4.0481    -5.9000     4.5876 H       
  60 H60            4.6208    -5.0884     2.3351 H       
  61 H61            2.8463    -4.5288     0.7338 H       
  62 H62           -3.5158     5.9791    -0.9209 H       
  63 H63           -1.7443     6.0336    -1.0839 H       
  64 H64           -3.3678     3.6827    -0.0081 H       
  65 H65           -2.6016     3.7734    -1.6130 H       
  66 H66           -0.3790     3.9759    -0.5620 H       
  67 H67           -1.9099     3.6911     2.0655 H       
  68 H68           -0.1408     3.7875     1.8871 H       
  69 H69           -0.3571     6.0416     0.8892 H       
  70 H70           -1.1098     5.9929     2.5013 H       
  71 H71           -1.7696     8.0152     0.5727 H       
  72 H72           -3.5353     7.8111     0.4784 H       
  73 H73           -0.6494     8.1681     2.7212 H       
  74 H74           -0.8472     8.7827     5.0974 H       
  75 H75           -3.0616     8.8460     6.1725 H       
  76 H76           -5.0782     8.2957     4.8712 H       
  77 H77           -4.8812     7.6893     2.4928 H       
@<TRIPOS>BOND
   1    1    2 1
   2    1    8 2
   3    1    9 am
   4    2    3 ar
   5    2    7 ar
   6    3    4 ar
   7    3   45 1
   8    4    5 ar
   9    4   46 1
  10    5    6 ar
  11    5   10 1
  12    6    7 ar
  13    6   47 1
  14    7   48 1
  15    9   35 1
  16    9   49 1
  17   10   23 1
  18   10   50 1
  19   10   51 1
  20   11   12 1
  21   11   15 1
  22   12   13 1
  23   12   52 1
  24   12   53 1
  25   13   14 1
  26   14   15 ar
  27   14   16 ar
  28   15   19 ar
  29   16   17 ar
  30   16   54 1
  31   17   18 ar
  32   17   20 1
  33   18   19 ar
  34   18   21 1
  35   19   55 1
  36   20   22 1
  37   21   22 1
  38   21   24 1
  39   21   25 1
  40   22   56 1
  41   22   57 1
  42   23   24 am
  43   23   30 1
  44   24   31 2
  45   25   26 ar
  46   25   30 ar
  47   26   27 ar
  48   26   58 1
  49   27   28 ar
  50   27   59 1
  51   28   29 ar
  52   28   60 1
  53   29   30 ar
  54   29   61 1
  55   32   33 1
  56   32   37 1
  57   32   38 1
  58   33   34 1
  59   33   62 1
  60   33   63 1
  61   34   35 1
  62   34   64 1
  63   34   65 1
  64   35   36 1
  65   35   66 1
  66   36   37 1
  67   36   67 1
  68   36   68 1
  69   37   69 1
  70   37   70 1
  71   38   39 1
  72   38   71 1
  73   38   72 1
  74   39   40 ar
  75   39   44 ar
  76   40   41 ar
  77   40   73 1
  78   41   42 ar
  79   41   74 1
  80   42   43 ar
  81   42   75 1
  82   43   44 ar
  83   43   76 1
  84   44   77 1

#	End of record

