#	Name: ASD03091639
#	Creating user name:	WinNT
#	Creation time:	15. 06. 2019 20:31

#	Modifying user name:	WinNT
#	Modification time:	15. 06. 2019 20:31

#	Program:	/corina/corina34_cracker 3.40 0067  02.08.2006

@<TRIPOS>MOLECULE
ASD03091639
  36   38    0    0    0
SMALL
NO_CHARGES


@<TRIPOS>ATOM
   1 C1             1.6468     1.2455    -0.7605 C.ar    
   2 C2             1.6273    -0.1244    -0.5468 C.ar    
   3 C3             1.1313    -0.6345     0.6362 C.ar    
   4 C4             0.6481     0.2190     1.6210 C.ar    
   5 C5             0.6612     1.5868     1.4229 C.ar    
   6 C6             1.1616     2.1119     0.2284 C.ar    
   7 O7             2.1395     1.7462    -1.9220 O.3     
   8 O8             0.1607    -0.2932     2.7825 O.3     
   9 C9             1.1790     3.5711     0.0095 C.2     
  10 O10            0.1471     4.1588    -0.2562 O.2     
  11 C11            2.4432     4.3150     0.1124 C.2     
  12 C12            2.6206     5.7764     0.0375 C.2     
  13 C13            3.6929     3.7916     0.3030 C.2     
  14 N14            4.5820     4.8019     0.3410 N.pl3   
  15 C15            3.9512     6.0008     0.1826 C.2     
  16 C16            1.5605     6.7946    -0.1575 C.ar    
  17 C17           -0.4222     8.6997    -0.5232 C.ar    
  18 C18            0.5520     8.5147    -1.4954 C.ar    
  19 C19            1.5393     7.5681    -1.3164 C.ar    
  20 C20            0.5756     6.9776     0.8185 C.ar    
  21 C21           -0.4114     7.9299     0.6305 C.ar    
  22 O22           -1.3920     9.6342    -0.7051 O.3     
  23 O23            0.5873     6.2223     1.9480 O.3     
  24 H24            2.0008    -0.7938    -1.3076 H       
  25 H25            1.1183    -1.7024     0.7971 H       
  26 H26            0.2850     2.2483     2.1892 H       
  27 H27            1.4772     1.8465    -2.6194 H       
  28 H28            0.8262    -0.3976     3.4763 H       
  29 H29            3.9272     2.7423     0.4059 H       
  30 H30            5.5377     4.6926     0.4662 H       
  31 H31            4.4307     6.9685     0.1766 H       
  32 H32            0.5391     9.1164    -2.3921 H       
  33 H33            2.2959     7.4267    -2.0740 H       
  34 H34           -1.1707     8.0765     1.3845 H       
  35 H35           -2.1814     9.2999    -1.1525 H       
  36 H36            1.0977     6.6075     2.6734 H       
@<TRIPOS>BOND
   1    1    2 ar
   2    1    6 ar
   3    1    7 1
   4    2    3 ar
   5    2   24 1
   6    3    4 ar
   7    3   25 1
   8    4    5 ar
   9    4    8 1
  10    5    6 ar
  11    5   26 1
  12    6    9 1
  13    7   27 1
  14    8   28 1
  15    9   10 2
  16    9   11 1
  17   11   13 2
  18   11   12 1
  19   12   15 2
  20   12   16 1
  21   13   14 1
  22   13   29 1
  23   14   15 1
  24   14   30 1
  25   15   31 1
  26   16   20 ar
  27   16   19 ar
  28   17   18 ar
  29   17   21 ar
  30   17   22 1
  31   18   19 ar
  32   18   32 1
  33   19   33 1
  34   20   21 ar
  35   20   23 1
  36   21   34 1
  37   22   35 1
  38   23   36 1

#	End of record

