#	Name: ASD02038855
#	Creating user name:	WinNT
#	Creation time:	15. 06. 2019 20:17

#	Modifying user name:	WinNT
#	Modification time:	15. 06. 2019 20:17

#	Program:	/corina/corina34_cracker 3.40 0067  02.08.2006

@<TRIPOS>MOLECULE
ASD02038855
  59   62    0    0    0
SMALL
NO_CHARGES


@<TRIPOS>ATOM
   1 C1            -1.2786    -0.8655     0.4603 C.2     
   2 C2            -0.0674    -0.0429     0.2967 C.2     
   3 N3             1.1350    -0.6348     0.1538 N.am    
   4 C4             1.2511    -2.0916     0.2563 C.3     
   5 C5             1.2317    -2.6955    -1.1243 C.ar    
   6 C6             2.4210    -3.0113    -1.7558 C.ar    
   7 C7             2.4118    -3.5662    -3.0226 C.ar    
   8 C8             1.2119    -3.8077    -3.6649 C.ar    
   9 C9             0.0093    -3.4905    -3.0314 C.ar    
  10 C10            0.0267    -2.9372    -1.7531 C.ar    
  11 C11            2.3259     0.1785    -0.1040 C.3     
  12 C12            2.0999     1.0175    -1.3584 C.3     
  13 C13            3.4118     1.6768    -1.7900 C.3     
  14 S14            3.9506     2.8276    -0.4916 S.o2    
  15 C15            3.9643     1.7409     0.9642 C.3     
  16 C16            2.5934     1.0748     1.1016 C.3     
  17 O17           -0.1525     1.1703     0.2906 O.2     
  18 N18           -1.3286    -2.2216     0.4976 N.2     
  19 C19           -2.5664    -2.5931     0.6540 C.2     
  20 N20           -3.3543    -1.4886     0.7226 N.pl3   
  21 C21           -2.5535    -0.4031     0.6080 C.2     
  22 C22           -4.8090    -1.4745     0.8960 C.3     
  23 O23            5.2839     3.2336    -0.7685 O.2     
  24 O24            2.9442     3.8148    -0.3128 O.2     
  25 C25           -1.2825    -3.7468    -3.7144 C.ar    
  26 C26           -1.4819    -3.3029    -5.0205 C.ar    
  27 C27           -2.2970    -4.4370    -3.0533 C.ar    
  28 C28           -3.4968    -4.6738    -3.6908 C.ar    
  29 C29           -3.6946    -4.2254    -4.9897 C.ar    
  30 C30           -2.6839    -3.5426    -5.6528 C.ar    
  31 O31           -4.8778    -4.4601    -5.6152 O.3     
  32 C32           -5.0136    -3.9710    -6.9510 C.3     
  33 F33           -4.0363    -4.5559    -7.7635 F       
  34 F34           -6.2831    -4.2972    -7.4402 F       
  35 F35           -4.8544    -2.5811    -6.9572 F       
  36 F36            1.2032    -4.3489    -4.9027 F       
  37 H37            2.1877    -2.3475     0.7517 H       
  38 H38            0.4149    -2.4829     0.8358 H       
  39 H39            3.3607    -2.8236    -1.2577 H       
  40 H40            3.3436    -3.8108    -3.5109 H       
  41 H41           -0.9008    -2.6898    -1.2581 H       
  42 H42            3.1821    -0.4776    -0.2601 H       
  43 H43            1.7357     0.3767    -2.1614 H       
  44 H44            1.3590     1.7891    -1.1490 H       
  45 H45            4.1734     0.9112    -1.9378 H       
  46 H46            3.2566     2.2232    -2.7203 H       
  47 H47            4.7309     0.9759     0.8411 H       
  48 H48            4.1747     2.3299     1.8569 H       
  49 H49            1.8221     1.8428     1.1597 H       
  50 H50            2.5726     0.4739     2.0108 H       
  51 H51           -2.9113    -3.6145     0.7184 H       
  52 H52           -2.8652     0.6309     0.6230 H       
  53 H53           -5.0479    -1.4471     1.9592 H       
  54 H54           -5.2247    -0.5933     0.4074 H       
  55 H55           -5.2367    -2.3727     0.4506 H       
  56 H56           -0.6962    -2.7714    -5.5367 H       
  57 H57           -2.1436    -4.7864    -2.0429 H       
  58 H58           -4.2831    -5.2089    -3.1792 H       
  59 H59           -2.8406    -3.1950    -6.6632 H       
@<TRIPOS>BOND
   1    1    2 1
   2    1   18 1
   3    1   21 2
   4    2    3 am
   5    2   17 2
   6    3    4 1
   7    3   11 1
   8    4    5 1
   9    4   37 1
  10    4   38 1
  11    5    6 ar
  12    5   10 ar
  13    6    7 ar
  14    6   39 1
  15    7    8 ar
  16    7   40 1
  17    8    9 ar
  18    8   36 1
  19    9   10 ar
  20    9   25 1
  21   10   41 1
  22   11   12 1
  23   11   16 1
  24   11   42 1
  25   12   13 1
  26   12   43 1
  27   12   44 1
  28   13   14 1
  29   13   45 1
  30   13   46 1
  31   14   15 1
  32   14   23 2
  33   14   24 2
  34   15   16 1
  35   15   47 1
  36   15   48 1
  37   16   49 1
  38   16   50 1
  39   18   19 2
  40   19   20 1
  41   19   51 1
  42   20   21 1
  43   20   22 1
  44   21   52 1
  45   22   53 1
  46   22   54 1
  47   22   55 1
  48   25   26 ar
  49   25   27 ar
  50   26   30 ar
  51   26   56 1
  52   27   28 ar
  53   27   57 1
  54   28   29 ar
  55   28   58 1
  56   29   30 ar
  57   29   31 1
  58   30   59 1
  59   31   32 1
  60   32   33 1
  61   32   34 1
  62   32   35 1

#	End of record

