#	Name: ASD00990070
#	Creating user name:	WinNT
#	Creation time:	15. 06. 2019 18:54

#	Modifying user name:	WinNT
#	Modification time:	15. 06. 2019 18:54

#	Program:	/corina/corina34_cracker 3.40 0067  02.08.2006

@<TRIPOS>MOLECULE
ASD00990070
  50   51    0    0    0
SMALL
NO_CHARGES


@<TRIPOS>ATOM
   1 C1             0.1118     1.7181    -0.2524 C.ar    
   2 C2             0.0404     0.3172    -0.1747 C.ar    
   3 C3            -1.1894    -0.3065    -0.0155 C.ar    
   4 C4            -2.3382     0.4522     0.0660 C.ar    
   5 C5            -2.2729     1.8385    -0.0102 C.ar    
   6 C6            -1.0609     2.4733    -0.1631 C.ar    
   7 N7             1.4223     2.0400    -0.4049 N.2     
   8 C8             2.1398     0.9549    -0.4252 C.2     
   9 N9             1.3400    -0.1370    -0.2872 N.pl3   
  10 C10            3.6383     0.9135    -0.5791 C.3     
  11 N11            4.2691     1.1075     0.7289 N.am    
  12 C12            4.6887    -0.0525     1.5191 C.3     
  13 Cl13          -3.7299     2.7767     0.0938 Cl      
  14 Cl14          -3.8756    -0.3292     0.2646 Cl      
  15 C15            1.7762    -1.5353    -0.2625 C.3     
  16 O16            5.0430     2.5316     2.4072 O.3     
  17 C17            5.2206     3.9008     2.8568 C.3     
  18 C18            3.8565     4.5871     2.9523 C.3     
  19 C19            5.8901     3.9030     4.2325 C.3     
  20 C20            6.1022     4.6548     1.8593 C.3     
  21 C21            4.4633     2.3533     1.2052 C.2     
  22 O22            4.1153     3.3154     0.5498 O.2     
  23 C23            1.9477    -1.9829     1.1662 C.2     
  24 O24            1.7281    -1.2128     2.0710 O.2     
  25 O25            2.3445    -3.2370     1.4337 O.3     
  26 C26            2.9448    -5.0552     2.9383 C.3     
  27 C27            2.4886    -3.5986     2.8325 C.3     
  28 H28           -1.2465    -1.3834     0.0441 H       
  29 H29           -1.0172     3.5508    -0.2217 H       
  30 H30            3.9352    -0.0532    -0.9858 H       
  31 H31            3.9560     1.7059    -1.2568 H       
  32 H32            5.7115    -0.3212     1.2552 H       
  33 H33            4.6398     0.1935     2.5798 H       
  34 H34            4.0269    -0.8931     1.3102 H       
  35 H35            1.0269    -2.1584    -0.7509 H       
  36 H36            2.7259    -1.6290    -0.7891 H       
  37 H37            3.2284     4.0499     3.6630 H       
  38 H38            3.9898     5.6149     3.2899 H       
  39 H39            3.3795     4.5855     1.9723 H       
  40 H40            6.8619     3.4141     4.1645 H       
  41 H41            6.0234     4.9309     4.5701 H       
  42 H42            5.2620     3.3658     4.9432 H       
  43 H43            5.6252     4.6532     0.8792 H       
  44 H44            6.2355     5.6827     2.1968 H       
  45 H45            7.0740     4.1659     1.7913 H       
  46 H46            2.2037    -5.7030     2.4701 H       
  47 H47            3.9027    -5.1736     2.4319 H       
  48 H48            3.0530    -5.3267     3.9884 H       
  49 H49            3.2297    -2.9509     3.3008 H       
  50 H50            1.5307    -3.4802     3.3390 H       
@<TRIPOS>BOND
   1    1    2 ar
   2    1    7 1
   3    1    6 ar
   4    2    3 ar
   5    2    9 1
   6    3    4 ar
   7    3   28 1
   8    4    5 ar
   9    4   14 1
  10    5    6 ar
  11    5   13 1
  12    6   29 1
  13    7    8 2
  14    8    9 1
  15    8   10 1
  16    9   15 1
  17   10   11 1
  18   10   30 1
  19   10   31 1
  20   11   12 1
  21   11   21 am
  22   12   32 1
  23   12   33 1
  24   12   34 1
  25   15   23 1
  26   15   35 1
  27   15   36 1
  28   16   17 1
  29   16   21 1
  30   17   18 1
  31   17   19 1
  32   17   20 1
  33   18   37 1
  34   18   38 1
  35   18   39 1
  36   19   40 1
  37   19   41 1
  38   19   42 1
  39   20   43 1
  40   20   44 1
  41   20   45 1
  42   21   22 2
  43   23   24 2
  44   23   25 1
  45   25   27 1
  46   26   27 1
  47   26   46 1
  48   26   47 1
  49   26   48 1
  50   27   49 1
  51   27   50 1

#	End of record

