#	Name: ASD05430406
#	Creating user name:	WinNT
#	Creation time:	15. 06. 2019 21:00

#	Modifying user name:	WinNT
#	Modification time:	15. 06. 2019 21:00

#	Program:	/corina/corina34_cracker 3.40 0067  02.08.2006

@<TRIPOS>MOLECULE
ASD05430406
  60   64    0    0    0
SMALL
NO_CHARGES


@<TRIPOS>ATOM
   1 C1            -0.0168     1.3911     0.0097 C.ar    
   2 C2             0.0021    -0.0041     0.0020 C.ar    
   3 C3            -1.1897    -0.7190     0.0091 C.ar    
   4 C4            -2.3954    -0.0542     0.0237 C.ar    
   5 C5            -2.4227     1.3458     0.0320 C.ar    
   6 C6            -1.2220     2.0655     0.0306 C.ar    
   7 C7            -4.8671     1.3600     0.0539 C.2     
   8 C8            -3.7079     2.0574     0.0475 C.2     
   9 C9            -6.1051     2.0455     0.0689 C.2     
  10 O10            1.1512     2.0867     0.0023 O.3     
  11 C11            1.0572     3.5126     0.0108 C.3     
  12 C12            1.5998    -1.7059     0.8223 C.2     
  13 N13            1.2247    -0.6855    -0.0133 N.pl3   
  14 C14            2.8456    -2.0675     0.4614 C.2     
  15 N15            3.2259    -1.2928    -0.5656 N.2     
  16 C16            2.2640    -0.4611    -0.8593 C.2     
  17 C17            3.6704    -3.1545     1.1011 C.3     
  18 N18           -7.3152     1.4341     0.0763 N.pl3   
  19 C19           -8.3205     2.5014     0.2871 C.3     
  20 C20           -7.4953     3.7607     0.1628 C.2     
  21 N21           -6.2264     3.3647     0.0832 N.2     
  22 O22           -7.9064     4.9045     0.1438 O.2     
  23 C23           -7.6817     0.0353    -0.1528 C.3     
  24 C24           -8.7645     0.0329    -1.2456 C.3     
  25 N25           -9.8193     0.9935    -0.9040 N.3     
  26 C26           -9.3300     2.3804    -0.8587 C.3     
  27 C27           -8.9736     2.3956     1.6411 C.ar    
  28 C28           -9.9406     3.3101     2.0149 C.ar    
  29 C29           -8.6093     1.3807     2.5062 C.ar    
  30 C30           -9.2081     1.2821     3.7478 C.ar    
  31 C31          -10.1730     2.2005     4.1253 C.ar    
  32 C32          -10.5405     3.2137     3.2561 C.ar    
  33 F33          -10.7591     2.1051     5.3388 F       
  34 C34          -10.9619     0.8681    -1.8187 C.3     
  35 H35           -1.1701    -1.7988     0.0028 H       
  36 H36           -3.3200    -0.6125     0.0285 H       
  37 H37           -1.2380     3.1453     0.0372 H       
  38 H38           -4.8478     0.2802     0.0476 H       
  39 H39           -3.7272     3.1372     0.0539 H       
  40 H40            0.5121     3.8461    -0.8722 H       
  41 H41            0.5291     3.8365     0.9076 H       
  42 H42            2.0587     3.9428     0.0036 H       
  43 H43            1.0108    -2.1342     1.6198 H       
  44 H44            2.2897     0.2812    -1.6434 H       
  45 H45            3.4794    -4.1009     0.5952 H       
  46 H46            4.7282    -2.9048     1.0174 H       
  47 H47            3.4003    -3.2439     2.1533 H       
  48 H48           -6.8112    -0.5276    -0.4896 H       
  49 H49           -8.0770    -0.4013     0.7644 H       
  50 H50           -8.3167     0.3107    -2.1997 H       
  51 H51           -9.1956    -0.9650    -1.3261 H       
  52 H52          -10.1655     3.0581    -0.6839 H       
  53 H53           -8.8444     2.6285    -1.8025 H       
  54 H54          -10.2271     4.1003     1.3368 H       
  55 H55           -7.8566     0.6644     2.2116 H       
  56 H56           -8.9239     0.4887     4.4232 H       
  57 H57          -11.2928     3.9309     3.5497 H       
  58 H58          -11.3280    -0.1585    -1.8042 H       
  59 H59          -11.7575     1.5420    -1.5009 H       
  60 H60          -10.6482     1.1276    -2.8298 H       
@<TRIPOS>BOND
   1    1    2 ar
   2    1   10 1
   3    1    6 ar
   4    2    3 ar
   5    2   13 1
   6    3    4 ar
   7    3   35 1
   8    4    5 ar
   9    4   36 1
  10    5    6 ar
  11    5    8 1
  12    6   37 1
  13    7    8 2
  14    7    9 1
  15    7   38 1
  16    8   39 1
  17    9   18 1
  18    9   21 2
  19   10   11 1
  20   11   40 1
  21   11   41 1
  22   11   42 1
  23   12   13 1
  24   12   14 2
  25   12   43 1
  26   13   16 1
  27   14   15 1
  28   14   17 1
  29   15   16 2
  30   16   44 1
  31   17   45 1
  32   17   46 1
  33   17   47 1
  34   18   19 1
  35   18   23 1
  36   19   20 1
  37   19   27 1
  38   19   26 1
  39   20   21 1
  40   20   22 2
  41   23   24 1
  42   23   48 1
  43   23   49 1
  44   24   25 1
  45   24   50 1
  46   24   51 1
  47   25   26 1
  48   25   34 1
  49   26   52 1
  50   26   53 1
  51   27   28 ar
  52   27   29 ar
  53   28   32 ar
  54   28   54 1
  55   29   30 ar
  56   29   55 1
  57   30   31 ar
  58   30   56 1
  59   31   32 ar
  60   31   33 1
  61   32   57 1
  62   34   58 1
  63   34   59 1
  64   34   60 1

#	End of record

