#	Name: ASD01900035
#	Creating user name:	WinNT
#	Creation time:	15. 06. 2019 19:51

#	Modifying user name:	WinNT
#	Modification time:	15. 06. 2019 19:51

#	Program:	/corina/corina34_cracker 3.40 0067  02.08.2006

@<TRIPOS>MOLECULE
ASD01900035
  47   49    0    0    0
SMALL
NO_CHARGES


@<TRIPOS>ATOM
   1 C1            -0.4146     1.0817     0.0724 C.3     
   2 C2            -0.3445    -0.4248    -0.1851 C.3     
   3 C3             0.4727    -0.6883    -1.4514 C.3     
   4 C4             1.8878    -0.1357    -1.2693 C.3     
   5 C5             1.8177     1.3709    -1.0119 C.3     
   6 C6             1.0004     1.6344     0.2544 C.3     
   7 C7             3.2114     1.9152    -0.8326 C.2     
   8 C8             2.5456    -0.8157    -0.0964 C.2     
   9 N9             2.7164    -2.1526    -0.1014 N.am    
  10 O10            3.6547     2.0919     0.2824 O.2     
  11 O11            2.9214    -0.1599     0.8522 O.2     
  12 C12            3.4224    -2.7716     0.9360 C.ar    
  13 H13            1.3419     1.8627    -1.8603 H       
  14 H14            2.4700    -0.3234    -2.1715 H       
  15 C15            3.0709    -4.0493     1.3509 C.ar    
  16 C16            3.7700    -4.6586     2.3761 C.ar    
  17 C17            4.8190    -3.9962     2.9890 C.ar    
  18 C18            5.1710    -2.7227     2.5777 C.ar    
  19 C19            4.4794    -2.1115     1.5486 C.ar    
  20 Cl20           6.4873    -1.8949     3.3497 Cl      
  21 Cl21           3.3311    -6.2559     2.8954 Cl      
  22 N22            3.9654     2.2057    -1.9113 N.am    
  23 C23            5.2864     2.8372    -1.7644 C.3     
  24 C24            6.3036     2.0242    -2.5733 C.3     
  25 O25            5.8218     1.8635    -3.9097 O.3     
  26 C26            4.5967     1.1329    -4.0063 C.3     
  27 C27            3.4945     1.8952    -3.2704 C.3     
  28 H28           -0.8904     1.5736    -0.7760 H       
  29 H29           -0.9968     1.2694     0.9746 H       
  30 H30            0.1313    -0.9167     0.6634 H       
  31 H31           -1.3526    -0.8186    -0.3147 H       
  32 H32            0.5227    -1.7616    -1.6348 H       
  33 H33           -0.0031    -0.1965    -2.2998 H       
  34 H34            0.9505     2.7077     0.4379 H       
  35 H35            1.4762     1.1425     1.1029 H       
  36 H36            2.3498    -2.6856    -0.8241 H       
  37 H37            2.2518    -4.5664     0.8734 H       
  38 H38            5.3637    -4.4738     3.7900 H       
  39 H39            4.7545    -1.1176     1.2279 H       
  40 H40            5.2490     3.8588    -2.1425 H       
  41 H41            5.5749     2.8446    -0.7133 H       
  42 H42            7.2582     2.5499    -2.5912 H       
  43 H43            6.4351     1.0447    -2.1134 H       
  44 H44            4.3234     1.0175    -5.0551 H       
  45 H45            4.7220     0.1502    -3.5516 H       
  46 H46            2.5957     1.2809    -3.2178 H       
  47 H47            3.2750     2.8234    -3.7980 H       
@<TRIPOS>BOND
   1    1    2 1
   2    1    6 1
   3    1   28 1
   4    1   29 1
   5    2    3 1
   6    2   30 1
   7    2   31 1
   8    3    4 1
   9    3   32 1
  10    3   33 1
  11    4    5 1
  12    4   14 1
  13    4    8 1
  14    5    6 1
  15    5   13 1
  16    5    7 1
  17    6   34 1
  18    6   35 1
  19    7   10 2
  20    7   22 am
  21    8    9 am
  22    8   11 2
  23    9   12 1
  24    9   36 1
  25   12   15 ar
  26   12   19 ar
  27   15   16 ar
  28   15   37 1
  29   16   17 ar
  30   16   21 1
  31   17   18 ar
  32   17   38 1
  33   18   19 ar
  34   18   20 1
  35   19   39 1
  36   22   23 1
  37   22   27 1
  38   23   24 1
  39   23   40 1
  40   23   41 1
  41   24   25 1
  42   24   42 1
  43   24   43 1
  44   25   26 1
  45   26   27 1
  46   26   44 1
  47   26   45 1
  48   27   46 1
  49   27   47 1

#	End of record

