#	Name: ASD01940594
#	Creating user name:	WinNT
#	Creation time:	15. 06. 2019 20:12

#	Modifying user name:	WinNT
#	Modification time:	15. 06. 2019 20:12

#	Program:	/corina/corina34_cracker 3.40 0067  02.08.2006

@<TRIPOS>MOLECULE
ASD01940594
  54   57    0    0    0
SMALL
NO_CHARGES


@<TRIPOS>ATOM
   1 C1             0.5751     2.2958    -1.1052 C.ar    
   2 C2            -0.4135     2.1872    -2.0737 C.ar    
   3 C3            -0.4293     3.0666    -3.1493 C.ar    
   4 C4             0.5379     4.0476    -3.2549 C.ar    
   5 C5             1.5226     4.1572    -2.2920 C.ar    
   6 C6             1.5434     3.2816    -1.2147 C.ar    
   7 N7            -1.3907     1.1950    -1.9673 N.am    
   8 S8            -1.3020    -0.1595    -2.9159 S.o2    
   9 N9             0.0836    -0.9628    -2.4951 N.am    
  10 O10           -2.3839    -0.9941    -2.5258 O.2     
  11 O11           -1.1130     0.2956    -4.2487 O.2     
  12 O12            2.5121     3.3910    -0.2683 O.3     
  13 C13            3.4998     4.3041    -0.4683 C.ar    
  14 C14            4.6861     3.9217    -1.0774 C.ar    
  15 C15            5.6925     4.8497    -1.2818 C.ar    
  16 C16            5.5200     6.1631    -0.8801 C.ar    
  17 C17            4.3360     6.5540    -0.2703 C.ar    
  18 C18            3.3195     5.6234    -0.0676 C.ar    
  19 N19            4.1618     7.8825     0.1360 N.pl3   
  20 C20            5.0644     8.8657    -0.2819 C.ar    
  21 C21            5.6468     8.7862    -1.5399 C.ar    
  22 C22            6.5380     9.7587    -1.9501 C.ar    
  23 C23            6.8517    10.8115    -1.1094 C.ar    
  24 C24            6.2744    10.8949     0.1451 C.ar    
  25 C25            5.3764     9.9285     0.5595 C.ar    
  26 F26            4.8080    10.0130     1.7822 F       
  27 I27            8.2046    12.2828    -1.7371 I       
  28 N28            2.1180     6.0152     0.5445 N.am    
  29 S29            1.6582     5.3301     1.9803 S.o2    
  30 F30            6.8464     4.4725    -1.8747 F       
  31 O31            0.4400     5.9847     2.3068 O.2     
  32 O32            1.6940     3.9320     1.7288 O.2     
  33 C33            2.9661     5.8009     3.1458 C.3     
  34 C34            2.8324     5.3167     4.5910 C.3     
  35 C35            3.8800     4.6906     3.6683 C.3     
  36 H36            0.5872     1.6164    -0.2658 H       
  37 H37           -1.1979     2.9831    -3.9034 H       
  38 H38            0.5244     4.7298    -4.0920 H       
  39 H39            2.2775     4.9249    -2.3776 H       
  40 H40           -2.1212     1.2993    -1.3378 H       
  41 H41            0.1542    -1.9188    -2.6437 H       
  42 H42            0.8247    -0.4774    -2.1001 H       
  43 H43            4.8247     2.8980    -1.3924 H       
  44 H44            6.3077     6.8843    -1.0409 H       
  45 H45            3.4150     8.1210     0.7073 H       
  46 H46            5.4034     7.9645    -2.1971 H       
  47 H47            6.9909     9.6967    -2.9286 H       
  48 H48            6.5219    11.7177     0.7994 H       
  49 H49            1.5573     6.6873     0.1263 H       
  50 H50            3.4095     6.7832     2.9832 H       
  51 H51            3.1881     5.9803     5.3791 H       
  52 H52            1.9585     4.7152     4.8414 H       
  53 H53            3.6953     3.6772     3.3117 H       
  54 H54            4.9249     4.9424     3.8494 H       
@<TRIPOS>BOND
   1    1    2 ar
   2    1    6 ar
   3    1   36 1
   4    2    3 ar
   5    2    7 1
   6    3    4 ar
   7    3   37 1
   8    4    5 ar
   9    4   38 1
  10    5    6 ar
  11    5   39 1
  12    6   12 1
  13    7    8 am
  14    7   40 1
  15    8    9 am
  16    8   10 2
  17    8   11 2
  18    9   41 1
  19    9   42 1
  20   12   13 1
  21   13   14 ar
  22   13   18 ar
  23   14   15 ar
  24   14   43 1
  25   15   16 ar
  26   15   30 1
  27   16   17 ar
  28   16   44 1
  29   17   18 ar
  30   17   19 1
  31   18   28 1
  32   19   20 1
  33   19   45 1
  34   20   21 ar
  35   20   25 ar
  36   21   22 ar
  37   21   46 1
  38   22   23 ar
  39   22   47 1
  40   23   24 ar
  41   23   27 1
  42   24   25 ar
  43   24   48 1
  44   25   26 1
  45   28   29 am
  46   28   49 1
  47   29   31 2
  48   29   32 2
  49   29   33 1
  50   33   34 1
  51   33   35 1
  52   33   50 1
  53   34   35 1
  54   34   51 1
  55   34   52 1
  56   35   53 1
  57   35   54 1

#	End of record

