#	Name: ASD08178121
#	Creating user name:	WinNT
#	Creation time:	15. 06. 2019 21:18

#	Modifying user name:	WinNT
#	Modification time:	15. 06. 2019 21:18

#	Program:	/corina/corina34_cracker 3.40 0067  02.08.2006

@<TRIPOS>MOLECULE
ASD08178121
  70   73    0    0    0
SMALL
NO_CHARGES


@<TRIPOS>ATOM
   1 C1            -0.0184     1.5028     0.0103 C.2     
   2 C2             0.0021    -0.0041     0.0020 C.3     
   3 C3             0.0221    -0.5218     1.4416 C.3     
   4 C4             0.0429    -2.0516     1.4332 C.3     
   5 C5             0.0630    -2.5693     2.8728 C.3     
   6 C6             0.0834    -4.0761     2.8645 C.2     
   7 N7             1.1396    -4.8258     2.8513 N.2     
   8 N8             0.9467    -6.0734     2.8463 N.2     
   9 C9            -0.2824    -6.4936     2.8547 C.2     
  10 S10           -1.3267    -5.1359     2.8788 S.3     
  11 N11           -0.6838    -7.8252     2.8506 N.am    
  12 N12            1.0171     2.2809     0.0046 N.2     
  13 C13            0.2391    -8.8073     2.8374 C.2     
  14 O14            1.4197    -8.5298     2.8290 O.2     
  15 C15           -0.1960   -10.2501     2.8329 C.3     
  16 C16           -0.9267   -10.5505     1.5496 C.ar    
  17 N17            0.7904     3.5228     0.0134 N.2     
  18 C18           -0.4495     3.9094     0.0274 C.2     
  19 S19           -1.4568     2.5237     0.0218 S.3     
  20 C20           -2.9800   -10.7531     0.3292 C.ar    
  21 C21           -0.2157   -10.8987     0.4165 C.ar    
  22 C22           -0.8814   -11.1752    -0.7634 C.ar    
  23 C23           -2.2642   -11.1037    -0.8117 C.ar    
  24 C24           -2.3071   -10.4827     1.5097 C.ar    
  25 N25           -0.8870     5.2295     0.0390 N.am    
  26 C26            0.0089     6.2364     0.0358 C.2     
  27 C27           -0.4651     7.6668     0.0485 C.3     
  28 O28            1.1967     5.9912     0.0228 O.2     
  29 C29           -1.1803     7.9476     1.3449 C.ar    
  30 O30            0.6579     8.5419    -0.0751 O.3     
  31 C31           -2.5569     7.8368     1.4112 C.ar    
  32 C32           -3.2160     8.0941     2.6024 C.ar    
  33 C33           -2.4894     8.4638     3.7303 C.ar    
  34 C34           -1.1102     8.5730     3.6571 C.ar    
  35 C35           -0.4582     8.3097     2.4666 C.ar    
  36 O36           -3.1318     8.7178     4.9017 O.3     
  37 O37            0.9524   -11.0942     2.9360 O.3     
  38 O38           -2.9206   -11.3758    -1.9712 O.3     
  39 O39           -4.5700     7.9860     2.6692 O.3     
  40 C40           -5.2500     7.6026     1.4723 C.3     
  41 O41           -4.3377   -10.6869     0.2883 O.3     
  42 C42           -5.0069   -10.3323     1.5001 C.3     
  43 H43           -0.8875    -0.3767    -0.5057 H       
  44 H44            0.8922    -0.3525    -0.5218 H       
  45 H45            0.9118    -0.1491     1.9494 H       
  46 H46           -0.8680    -0.1733     1.9655 H       
  47 H47           -0.8467    -2.4242     0.9255 H       
  48 H48            0.9330    -2.4000     0.9094 H       
  49 H49            0.9526    -2.1967     3.3806 H       
  50 H50           -0.8271    -2.2209     3.3967 H       
  51 H51           -1.6281    -8.0470     2.8573 H       
  52 H52           -0.8581   -10.4325     3.6793 H       
  53 H53            0.8623   -10.9545     0.4527 H       
  54 H54           -0.3235   -11.4467    -1.6474 H       
  55 H55           -2.8602   -10.2105     2.3964 H       
  56 H56           -1.8369     5.4256     0.0495 H       
  57 H57           -1.1471     7.8310    -0.7857 H       
  58 H58            1.3079     8.4504     0.6350 H       
  59 H59           -3.1185     7.5500     0.5344 H       
  60 H60           -0.5440     8.8601     4.5308 H       
  61 H61            0.6170     8.3951     2.4107 H       
  62 H62           -3.2385     7.9414     5.4682 H       
  63 H63            1.5867   -10.9852     2.2143 H       
  64 H64           -3.1625   -12.3060    -2.0772 H       
  65 H65           -5.0530     8.3370     0.6913 H       
  66 H66           -4.8937     6.6244     1.1494 H       
  67 H67           -6.3221     7.5539     1.6632 H       
  68 H68           -4.7725   -11.0651     2.2723 H       
  69 H69           -4.6751    -9.3455     1.8230 H       
  70 H70           -6.0833   -10.3160     1.3294 H       
@<TRIPOS>BOND
   1    1    2 1
   2    1   12 2
   3    1   19 1
   4    2    3 1
   5    2   43 1
   6    2   44 1
   7    3    4 1
   8    3   45 1
   9    3   46 1
  10    4    5 1
  11    4   47 1
  12    4   48 1
  13    5    6 1
  14    5   49 1
  15    5   50 1
  16    6    7 2
  17    6   10 1
  18    7    8 1
  19    8    9 2
  20    9   10 1
  21    9   11 1
  22   11   13 am
  23   11   51 1
  24   12   17 1
  25   13   14 2
  26   13   15 1
  27   15   16 1
  28   15   37 1
  29   15   52 1
  30   16   21 ar
  31   16   24 ar
  32   17   18 2
  33   18   19 1
  34   18   25 1
  35   20   24 ar
  36   20   41 1
  37   20   23 ar
  38   21   22 ar
  39   21   53 1
  40   22   23 ar
  41   22   54 1
  42   23   38 1
  43   24   55 1
  44   25   26 am
  45   25   56 1
  46   26   27 1
  47   26   28 2
  48   27   29 1
  49   27   30 1
  50   27   57 1
  51   29   31 ar
  52   29   35 ar
  53   30   58 1
  54   31   32 ar
  55   31   59 1
  56   32   33 ar
  57   32   39 1
  58   33   34 ar
  59   33   36 1
  60   34   35 ar
  61   34   60 1
  62   35   61 1
  63   36   62 1
  64   37   63 1
  65   38   64 1
  66   39   40 1
  67   40   65 1
  68   40   66 1
  69   40   67 1
  70   41   42 1
  71   42   68 1
  72   42   69 1
  73   42   70 1

#	End of record

