#	Name: ASD01870590
#	Creating user name:	WinNT
#	Creation time:	15. 06. 2019 19:39

#	Modifying user name:	WinNT
#	Modification time:	15. 06. 2019 19:39

#	Program:	/corina/corina34_cracker 3.40 0067  02.08.2006

@<TRIPOS>MOLECULE
ASD01870590
  40   43    0    0    0
SMALL
NO_CHARGES


@<TRIPOS>ATOM
   1 C1            -0.0209     1.3777     0.0288 C.ar    
   2 C2             0.0143     0.0051     0.2439 C.ar    
   3 C3             1.2215    -0.6662     0.2224 C.ar    
   4 C4             2.3992     0.0307    -0.0142 C.ar    
   5 C5             2.3634     1.4027    -0.2291 C.ar    
   6 C6             1.1574     2.0738    -0.2076 C.ar    
   7 N7             3.6225    -0.6493    -0.0356 N.am    
   8 C8             3.6902    -1.8989    -0.5358 C.2     
   9 O9             2.6760    -2.4675    -0.8901 O.2     
  10 N10           -1.2449     2.0579     0.0448 N.am    
  11 C11           -2.0386     2.2668    -1.0198 C.2     
  12 C12           -3.2435     3.0182    -0.6202 C.ar    
  13 C13           -1.8758     2.6546     1.2276 C.3     
  14 C14           -5.3521     4.1666    -0.6939 C.ar    
  15 C15           -5.2673     4.4127     0.6651 C.ar    
  16 C16           -4.1738     3.9622     1.3877 C.ar    
  17 C17           -3.1670     3.2714     0.7512 C.ar    
  18 C18           -4.3497     3.4738    -1.3404 C.ar    
  19 O19           -1.7978     1.8902    -2.1504 O.2     
  20 C20            4.9998    -2.5791    -0.6538 C.ar    
  21 Cl21          -4.0712     4.2728     3.0926 Cl      
  22 Cl22          -1.4581    -0.8654     0.5400 Cl      
  23 N23            6.1039    -1.9551    -0.2601 N.ar    
  24 C24            5.0636    -3.8719    -1.1721 C.ar    
  25 C25            6.2991    -4.4956    -1.2761 C.ar    
  26 C26            7.4249    -3.8049    -0.8586 C.ar    
  27 C27            7.2861    -2.5235    -0.3479 C.ar    
  28 Cl28           3.6187    -4.6897    -1.6793 Cl      
  29 H29            1.2494    -1.7328     0.3898 H       
  30 H30            3.2794     1.9444    -0.4130 H       
  31 H31            1.1300     3.1405    -0.3748 H       
  32 H32            4.4215    -0.2211     0.3097 H       
  33 H33           -2.0784     1.8851     1.9725 H       
  34 H34           -1.2287     3.4237     1.6494 H       
  35 H35           -6.2067     4.5201    -1.2515 H       
  36 H36           -6.0558     4.9561     1.1643 H       
  37 H37           -4.4201     3.2845    -2.4014 H       
  38 H38            6.3809    -5.4967    -1.6731 H       
  39 H39            8.4011    -4.2619    -0.9262 H       
  40 H40            8.1617    -1.9844    -0.0175 H       
@<TRIPOS>BOND
   1    1    2 ar
   2    1    6 ar
   3    1   10 1
   4    2    3 ar
   5    2   22 1
   6    3    4 ar
   7    3   29 1
   8    4    5 ar
   9    4    7 1
  10    5    6 ar
  11    5   30 1
  12    6   31 1
  13    7    8 am
  14    7   32 1
  15    8    9 2
  16    8   20 1
  17   10   11 am
  18   10   13 1
  19   11   12 1
  20   11   19 2
  21   12   18 ar
  22   12   17 ar
  23   13   17 1
  24   13   33 1
  25   13   34 1
  26   14   15 ar
  27   14   18 ar
  28   14   35 1
  29   15   16 ar
  30   15   36 1
  31   16   17 ar
  32   16   21 1
  33   18   37 1
  34   20   24 ar
  35   20   23 ar
  36   23   27 ar
  37   24   25 ar
  38   24   28 1
  39   25   26 ar
  40   25   38 1
  41   26   27 ar
  42   26   39 1
  43   27   40 1

#	End of record

