#	Name: ASD01140738
#	Creating user name:	WinNT
#	Creation time:	15. 06. 2019 19:01

#	Modifying user name:	WinNT
#	Modification time:	15. 06. 2019 19:01

#	Program:	/corina/corina34_cracker 3.40 0067  02.08.2006

@<TRIPOS>MOLECULE
ASD01140738
  42   44    0    0    0
SMALL
NO_CHARGES


@<TRIPOS>ATOM
   1 C1             0.1070     1.5006     0.0396 C.3     
   2 C2             0.0582    -0.0054     0.0143 C.2     
   3 O3            -0.0727    -0.7840    -1.0692 O.3     
   4 N4            -0.0803    -1.9582    -0.7809 N.2     
   5 C5             0.0418    -2.1344     0.5113 C.2     
   6 C6             0.1438    -0.8340     1.0796 C.2     
   7 C7             0.3065    -0.4655     2.5318 C.3     
   8 O8            -0.9751    -0.1862     3.0988 O.3     
   9 C9            -1.0057     0.1638     4.4077 C.ar    
  10 N10            0.1228     0.2398     5.1012 N.ar    
  11 N11            0.1422     0.5674     6.3421 N.ar    
  12 C12           -0.9670     0.8521     7.0137 C.ar    
  13 C13           -2.2058     0.7984     6.3642 C.ar    
  14 C14           -2.2219     0.4498     5.0248 C.ar    
  15 C15           -3.5171     0.3769     4.2577 C.3     
  16 C16           -0.8941     1.2242     8.4436 C.2     
  17 N17            0.2999     1.2748     9.0668 N.am    
  18 O18           -1.9109     1.4845     9.0565 O.2     
  19 C19            0.0735    -3.4296     1.2359 C.ar    
  20 C20           -0.6059    -3.5821     2.4471 C.ar    
  21 C21           -0.5458    -4.8102     3.0837 C.ar    
  22 C22            0.1779    -5.8368     2.5057 C.ar    
  23 C23            0.2460    -7.1756     3.1943 C.3     
  24 N24            0.8093    -5.6627     1.3606 N.ar    
  25 C25            0.7764    -4.5144     0.7162 C.ar    
  26 H26            1.1404     1.8323    -0.0608 H       
  27 H27           -0.4837     1.8971    -0.7862 H       
  28 H28           -0.3003     1.8615     0.9839 H       
  29 H29            0.7680    -1.2950     3.0676 H       
  30 H30            0.9404     0.4175     2.6138 H       
  31 H31           -3.1207     1.0256     6.8912 H       
  32 H32           -3.9289    -0.6294     4.3348 H       
  33 H33           -4.2263     1.0926     4.6734 H       
  34 H34           -3.3327     0.6148     3.2101 H       
  35 H35            1.1114     1.0671     8.5777 H       
  36 H36            0.3477     1.5188    10.0044 H       
  37 H37           -1.1635    -2.7627     2.8762 H       
  38 H38           -1.0583    -4.9645     4.0217 H       
  39 H39           -0.5765    -7.8030     2.8510 H       
  40 H40            1.1943    -7.6581     2.9576 H       
  41 H41            0.1696    -7.0340     4.2723 H       
  42 H42            1.3026    -4.4115    -0.2213 H       
@<TRIPOS>BOND
   1    1    2 1
   2    1   26 1
   3    1   27 1
   4    1   28 1
   5    2    6 2
   6    2    3 1
   7    3    4 1
   8    4    5 2
   9    5    6 1
  10    5   19 1
  11    6    7 1
  12    7    8 1
  13    7   29 1
  14    7   30 1
  15    8    9 1
  16    9   14 ar
  17    9   10 ar
  18   10   11 ar
  19   11   12 ar
  20   12   13 ar
  21   12   16 1
  22   13   14 ar
  23   13   31 1
  24   14   15 1
  25   15   32 1
  26   15   33 1
  27   15   34 1
  28   16   17 am
  29   16   18 2
  30   17   35 1
  31   17   36 1
  32   19   25 ar
  33   19   20 ar
  34   20   21 ar
  35   20   37 1
  36   21   22 ar
  37   21   38 1
  38   22   23 1
  39   22   24 ar
  40   23   39 1
  41   23   40 1
  42   23   41 1
  43   24   25 ar
  44   25   42 1

#	End of record

