#	Name: ASD01230016
#	Creating user name:	WinNT
#	Creation time:	15. 06. 2019 19:11

#	Modifying user name:	WinNT
#	Modification time:	15. 06. 2019 19:11

#	Program:	/corina/corina34_cracker 3.40 0067  02.08.2006

@<TRIPOS>MOLECULE
ASD01230016
  57   60    0    0    0
SMALL
NO_CHARGES


@<TRIPOS>ATOM
   1 C1            -0.0187     1.5258     0.0104 C.3     
   2 C2             0.0021    -0.0041     0.0020 C.3     
   3 C3             0.7421    -0.5109     1.2415 C.3     
   4 S4            -1.6997    -0.6320     0.0149 S.o2    
   5 O5            -1.7138    -2.0386    -0.1864 O.2     
   6 O6            -2.4435    -0.0351     1.0684 O.2     
   7 N7            -2.3782    -0.0153    -1.3642 N.am    
   8 C8            -2.7399    -1.5694    -3.2587 C.3     
   9 C9            -1.8762    -0.4306    -2.6764 C.3     
  10 C10           -2.0648     0.6937    -3.7167 C.3     
  11 C11           -2.3846    -0.0170    -5.0146 C.ar    
  12 C12           -2.3393     0.4402    -6.3190 C.ar    
  13 C13           -2.6837    -0.4069    -7.3685 C.ar    
  14 C14           -3.0741    -1.7170    -7.0980 C.ar    
  15 C15           -3.1163    -2.1643    -5.7946 C.ar    
  16 C16           -2.7728    -1.3184    -4.7515 C.ar    
  17 C17           -2.6359     0.0829    -8.7684 C.ar    
  18 C18           -2.2459     1.3933    -9.0379 C.ar    
  19 C19           -2.2028     1.8434   -10.3417 C.ar    
  20 C20           -2.5463     0.9964   -11.3803 C.ar    
  21 C21           -2.9341    -0.3050   -11.1185 C.ar    
  22 C22           -2.9753    -0.7674    -9.8185 C.ar    
  23 C23           -3.3069    -1.2217   -12.2551 C.3     
  24 N24           -2.1130    -1.9305   -12.7225 N.am    
  25 C25           -1.6962    -3.1140   -12.2404 C.2     
  26 C26           -0.4282    -3.5450   -12.9440 C.3     
  27 C27            0.0848    -2.2549   -13.6249 C.3     
  28 C28           -1.2219    -1.4426   -13.7816 C.3     
  29 O29           -2.2552    -3.7445   -11.3681 O.2     
  30 H30            1.0039     1.9031     0.0027 H       
  31 H31           -0.5459     1.8868    -0.8726 H       
  32 H32           -0.5289     1.8773     0.9072 H       
  33 H33            0.5123    -0.3556    -0.8948 H       
  34 H34            0.2319    -0.1594     2.1383 H       
  35 H35            0.7568    -1.6008     1.2356 H       
  36 H36            1.7647    -0.1336     1.2338 H       
  37 H37           -3.1078     0.6209    -1.3031 H       
  38 H38           -2.2830    -2.5362    -3.0478 H       
  39 H39           -3.7479    -1.5285    -2.8460 H       
  40 H40           -0.8306    -0.7315    -2.6119 H       
  41 H41           -2.8915     1.3424    -3.4270 H       
  42 H42           -1.1468     1.2725    -3.8187 H       
  43 H43           -2.0364     1.4564    -6.5238 H       
  44 H44           -3.3431    -2.3799    -7.9070 H       
  45 H45           -3.4188    -3.1797    -5.5849 H       
  46 H46           -1.9782     2.0555    -8.2279 H       
  47 H47           -1.9006     2.8588   -10.5517 H       
  48 H48           -2.5119     1.3530   -12.3991 H       
  49 H49           -3.2743    -1.7852    -9.6156 H       
  50 H50           -4.0471    -1.9443   -11.9113 H       
  51 H51           -3.7247    -0.6349   -13.0731 H       
  52 H52            0.3022    -3.9121   -12.2230 H       
  53 H53           -0.6467    -4.3091   -13.6900 H       
  54 H54            0.7984    -1.7341   -12.9864 H       
  55 H55            0.5230    -2.4754   -14.5983 H       
  56 H56           -1.6607    -1.6197   -14.7635 H       
  57 H57           -1.0243    -0.3797   -13.6422 H       
@<TRIPOS>BOND
   1    1    2 1
   2    1   30 1
   3    1   31 1
   4    1   32 1
   5    2    3 1
   6    2    4 1
   7    2   33 1
   8    3   34 1
   9    3   35 1
  10    3   36 1
  11    4    5 2
  12    4    6 2
  13    4    7 am
  14    7    9 1
  15    7   37 1
  16    8    9 1
  17    8   16 1
  18    8   38 1
  19    8   39 1
  20    9   10 1
  21    9   40 1
  22   10   11 1
  23   10   41 1
  24   10   42 1
  25   11   12 ar
  26   11   16 ar
  27   12   13 ar
  28   12   43 1
  29   13   14 ar
  30   13   17 1
  31   14   15 ar
  32   14   44 1
  33   15   16 ar
  34   15   45 1
  35   17   18 ar
  36   17   22 ar
  37   18   19 ar
  38   18   46 1
  39   19   20 ar
  40   19   47 1
  41   20   21 ar
  42   20   48 1
  43   21   22 ar
  44   21   23 1
  45   22   49 1
  46   23   24 1
  47   23   50 1
  48   23   51 1
  49   24   25 am
  50   24   28 1
  51   25   26 1
  52   25   29 2
  53   26   27 1
  54   26   52 1
  55   26   53 1
  56   27   28 1
  57   27   54 1
  58   27   55 1
  59   28   56 1
  60   28   57 1

#	End of record

