#	Name: ASD01410809
#	Creating user name:	WinNT
#	Creation time:	15. 06. 2019 19:18

#	Modifying user name:	WinNT
#	Modification time:	15. 06. 2019 19:18

#	Program:	/corina/corina34_cracker 3.40 0067  02.08.2006

@<TRIPOS>MOLECULE
ASD01410809
  53   56    0    0    0
SMALL
NO_CHARGES


@<TRIPOS>ATOM
   1 N1            -0.0158     1.3121     0.0093 N.ar    
   2 C2             0.0021    -0.0041     0.0020 C.ar    
   3 C3             1.2035    -0.7206    -0.0133 C.ar    
   4 C4             2.3943    -0.0526    -0.0210 C.ar    
   5 C5             2.3689     1.3574    -0.0132 C.ar    
   6 C6             3.5565     2.1052    -0.0209 C.ar    
   7 C7             3.5014     3.4650    -0.0136 C.ar    
   8 C8             2.2731     4.1316     0.0021 C.ar    
   9 C9             1.0895     3.4271     0.0100 C.ar    
  10 C10            1.1179     2.0227     0.0022 C.ar    
  11 O11            2.2463     5.4900     0.0100 O.3     
  12 C12            3.5064     6.1638     0.0016 C.3     
  13 C13            3.2760     7.6764     0.0124 C.3     
  14 N14            2.6358     8.0652     1.2761 N.3     
  15 C15            2.6130     9.5273     1.4271 C.3     
  16 C16            1.8862     9.8897     2.7249 C.3     
  17 O17            2.5322     9.2418     3.8241 O.3     
  18 C18            2.5717     7.8167     3.7100 C.3     
  19 C19            3.3056     7.4334     2.4222 C.3     
  20 N20           -1.2075    -0.7020     0.0103 N.pl3   
  21 N21           -1.3569    -2.0949     0.0048 N.2     
  22 C22           -2.6357    -2.3699     0.0158 C.2     
  23 C23           -3.3462    -1.1639     0.0287 C.2     
  24 C24           -2.4495    -0.1513     0.0310 C.2     
  25 C25           -3.2409    -3.7500     0.0143 C.3     
  26 C26           -3.5474    -4.1740     1.4521 C.3     
  27 C27           -4.5356    -3.7383    -0.8009 C.3     
  28 Cl28          -0.4281     4.2698     0.0289 Cl      
  29 Cl29           3.9001    -0.9163    -0.0395 Cl      
  30 H30            1.1891    -1.8005    -0.0186 H       
  31 H31            4.5124     1.6026    -0.0323 H       
  32 H32            4.4181     4.0360    -0.0196 H       
  33 H33            4.0777     5.8770     0.8845 H       
  34 H34            4.0604     5.8871    -0.8954 H       
  35 H35            4.2324     8.1903    -0.0836 H       
  36 H36            2.6304     7.9515    -0.8217 H       
  37 H37            3.6347     9.9053     1.4645 H       
  38 H38            2.0903     9.9726     0.5807 H       
  39 H39            1.9167    10.9695     2.8699 H       
  40 H40            0.8493     9.5589     2.6659 H       
  41 H41            3.0981     7.3974     4.5674 H       
  42 H42            1.5548     7.4257     3.6796 H       
  43 H43            3.2883     6.3502     2.3021 H       
  44 H44            4.3383     7.7779     2.4754 H       
  45 H45           -4.4212    -1.0603     0.0397 H       
  46 H46           -2.6792     0.9040     0.0440 H       
  47 H47           -2.5380    -4.4545    -0.4302 H       
  48 H48           -2.6251    -4.1824     2.0329 H       
  49 H49           -4.2503    -3.4695     1.8967 H       
  50 H50           -3.9852    -5.1723     1.4510 H       
  51 H51           -4.3173    -3.4362    -1.8252 H       
  52 H52           -4.9734    -4.7365    -0.8019 H       
  53 H53           -5.2385    -3.0338    -0.3563 H       
@<TRIPOS>BOND
   1    1    2 ar
   2    1   10 ar
   3    2    3 ar
   4    2   20 1
   5    3    4 ar
   6    3   30 1
   7    4    5 ar
   8    4   29 1
   9    5    6 ar
  10    5   10 ar
  11    6    7 ar
  12    6   31 1
  13    7    8 ar
  14    7   32 1
  15    8    9 ar
  16    8   11 1
  17    9   10 ar
  18    9   28 1
  19   11   12 1
  20   12   13 1
  21   12   33 1
  22   12   34 1
  23   13   14 1
  24   13   35 1
  25   13   36 1
  26   14   15 1
  27   14   19 1
  28   15   16 1
  29   15   37 1
  30   15   38 1
  31   16   17 1
  32   16   39 1
  33   16   40 1
  34   17   18 1
  35   18   19 1
  36   18   41 1
  37   18   42 1
  38   19   43 1
  39   19   44 1
  40   20   21 1
  41   20   24 1
  42   21   22 2
  43   22   23 1
  44   22   25 1
  45   23   24 2
  46   23   45 1
  47   24   46 1
  48   25   26 1
  49   25   27 1
  50   25   47 1
  51   26   48 1
  52   26   49 1
  53   26   50 1
  54   27   51 1
  55   27   52 1
  56   27   53 1

#	End of record

