#	Name: ASD00100141
#	Creating user name:	WinNT
#	Creation time:	15. 06. 2019 18:30

#	Modifying user name:	WinNT
#	Modification time:	15. 06. 2019 18:30

#	Program:	/corina/corina34_cracker 3.40 0067  02.08.2006

@<TRIPOS>MOLECULE
ASD00100141
  48   50    0    0    0
SMALL
NO_CHARGES


@<TRIPOS>ATOM
   1 C1             0.0123     1.3143    -0.1460 C.2     
   2 N2             0.0314     0.0150    -0.3175 N.2     
   3 C3             1.2739    -0.4520    -0.0366 C.2     
   4 C4             2.0453     0.6044     0.3210 C.2     
   5 N5             1.2485     1.7213     0.2520 N.pl3   
   6 N6            -1.0831     2.1376    -0.3430 N.pl3   
   7 C7             1.7111    -1.8677    -0.1076 C.ar    
   8 C8             0.8103    -2.8595    -0.4924 C.ar    
   9 C9             1.2226    -4.1748    -0.5571 C.ar    
  10 C10            2.5271    -4.5099    -0.2407 C.ar    
  11 C11            3.4251    -3.5299     0.1417 C.ar    
  12 C12            3.0253    -2.2103     0.2044 C.ar    
  13 C13            2.9711    -5.9482    -0.3123 C.3     
  14 C14            0.2500    -5.2482    -0.9728 C.3     
  15 C15            1.6544     3.0966     0.5517 C.3     
  16 C16            1.3708     3.3998     2.0004 C.ar    
  17 C17            2.2934     3.0538     2.9757 C.ar    
  18 C18            2.0299     3.3340     4.3091 C.ar    
  19 C19            0.8492     3.9572     4.6650 C.ar    
  20 C20           -0.0720     4.3030     3.6948 C.ar    
  21 C21            0.1895     4.0301     2.3595 C.ar    
  22 O22           -0.7144     4.3754     1.4053 O.3     
  23 C23           -1.9096     5.0219     1.8474 C.3     
  24 O24            3.4547     2.4405     2.6263 O.3     
  25 C25            4.3589     2.1129     3.6832 C.3     
  26 H26            3.0866     0.5736     0.6057 H       
  27 H27           -1.9534     1.7511    -0.5273 H       
  28 H28           -0.9802     3.1010    -0.2968 H       
  29 H29           -0.2084    -2.5991    -0.7389 H       
  30 H30            4.4421    -3.7973     0.3880 H       
  31 H31            3.7285    -1.4454     0.4991 H       
  32 H32            3.3505    -6.1620    -1.3116 H       
  33 H33            3.7590    -6.1222     0.4204 H       
  34 H34            2.1248    -6.6008    -0.0977 H       
  35 H35            0.2877    -5.3734    -2.0550 H       
  36 H36            0.5171    -6.1877    -0.4889 H       
  37 H37           -0.7582    -4.9600    -0.6753 H       
  38 H38            2.7211     3.2109     0.3587 H       
  39 H39            1.0950     3.7865    -0.0801 H       
  40 H40            2.7482     3.0644     5.0692 H       
  41 H41            0.6457     4.1741     5.7033 H       
  42 H42           -0.9941     4.7900     3.9755 H       
  43 H43           -2.4448     4.3660     2.5340 H       
  44 H44           -1.6531     5.9504     2.3575 H       
  45 H45           -2.5426     5.2425     0.9879 H       
  46 H46            4.6540     3.0236     4.2043 H       
  47 H47            3.8693     1.4360     4.3835 H       
  48 H48            5.2430     1.6291     3.2681 H       
@<TRIPOS>BOND
   1    1    2 2
   2    1    5 1
   3    1    6 1
   4    2    3 1
   5    3    4 2
   6    3    7 1
   7    4    5 1
   8    4   26 1
   9    5   15 1
  10    6   27 1
  11    6   28 1
  12    7    8 ar
  13    7   12 ar
  14    8    9 ar
  15    8   29 1
  16    9   10 ar
  17    9   14 1
  18   10   11 ar
  19   10   13 1
  20   11   12 ar
  21   11   30 1
  22   12   31 1
  23   13   32 1
  24   13   33 1
  25   13   34 1
  26   14   35 1
  27   14   36 1
  28   14   37 1
  29   15   16 1
  30   15   38 1
  31   15   39 1
  32   16   17 ar
  33   16   21 ar
  34   17   18 ar
  35   17   24 1
  36   18   19 ar
  37   18   40 1
  38   19   20 ar
  39   19   41 1
  40   20   21 ar
  41   20   42 1
  42   21   22 1
  43   22   23 1
  44   23   43 1
  45   23   44 1
  46   23   45 1
  47   24   25 1
  48   25   46 1
  49   25   47 1
  50   25   48 1

#	End of record

