#	Name: ASD06610059
#	Creating user name:	WinNT
#	Creation time:	15. 06. 2019 21:07

#	Modifying user name:	WinNT
#	Modification time:	15. 06. 2019 21:07

#	Program:	/corina/corina34_cracker 3.40 0067  02.08.2006

@<TRIPOS>MOLECULE
ASD06610059
 313  313    0    0    0
SMALL
NO_CHARGES


@<TRIPOS>ATOM
   1 C1            -6.9856    -1.2867   -17.7097 C.2     
   2 O2            -7.2345    -2.4733   -17.7426 O.2     
   3 N3            -7.0655    -1.4049   -20.1323 N.am    
   4 C4            -6.8776    -0.5036   -18.9927 C.3     
   5 C5            -7.9543     0.5831   -19.0191 C.3     
   6 C6            -9.3366    -0.0698   -19.0801 C.3     
   7 C7            -9.6122    -0.8042   -17.7665 C.3     
   8 C8            -7.7542     1.4695   -20.2501 C.3     
   9 C9            -7.3719    -0.4348   -14.1759 C.2     
  10 O10           -7.2666     0.7590   -14.3623 O.2     
  11 N11           -6.8112    -0.6673   -16.5255 N.am    
  12 C12           -7.0212    -1.4030   -15.2761 C.3     
  13 C13           -5.7411    -2.1545   -14.9054 C.3     
  14 C14           -5.4568    -3.2278   -15.9580 C.3     
  15 C15           -4.5702    -1.1712   -14.8505 C.3     
  16 C16           -8.0955    -0.5851   -10.5958 C.2     
  17 O17           -8.0540    -1.7923   -10.4875 O.2     
  18 N18           -7.8025    -0.8954   -12.9847 N.am    
  19 C19           -8.2543     0.0445   -11.9558 C.3     
  20 C20           -9.7267     0.3881   -12.1899 C.3     
  21 C21           -9.8675     1.1611   -13.5027 C.3     
  22 C22          -11.3399     1.5047   -13.7368 C.3     
  23 N23          -11.4747     2.2449   -14.9939 N.pl3   
  24 C24          -12.7146     2.6632   -15.4158 C.2     
  25 N25          -13.7701     2.4011   -14.6973 N.2     
  26 N26          -12.8411     3.3578   -16.5954 N.pl3   
  27 C27           -8.8201    -1.2389    -7.7069 C.2     
  28 O28           -9.7265    -1.5068    -8.4669 O.2     
  29 N29           -7.9995     0.1935    -9.4999 N.am    
  30 C30           -7.7383    -0.2799    -8.1327 C.3     
  31 C31           -7.7414     0.9577    -7.2108 C.3     
  32 C32           -8.5646     1.9930    -8.0218 C.3     
  33 C33           -8.1327     1.6615    -9.4744 C.3     
  34 C34           -9.9347    -2.7369    -4.5642 C.2     
  35 O35           -9.1600    -2.0806    -3.9008 O.2     
  36 N36           -8.7803    -1.7987    -6.4816 N.am    
  37 C37           -9.8319    -2.7309    -6.0677 C.3     
  38 C38           -9.4892    -4.1381    -6.5610 C.3     
  39 C39           -9.5119    -4.1618    -8.0907 C.3     
  40 C40           -8.0948    -4.5267    -6.0656 C.3     
  41 C41          -11.6083    -4.8424    -2.0885 C.2     
  42 O42          -12.0306    -5.6000    -2.9362 O.2     
  43 N43          -10.8874    -3.4716    -3.9568 N.am    
  44 C44          -10.9197    -3.5651    -2.4951 C.3     
  45 C45          -11.6846    -2.3693    -1.9243 C.3     
  46 C46          -13.9750    -5.9626    -0.2460 C.2     
  47 O47          -14.3379    -4.8250    -0.4581 O.2     
  48 N48          -11.7549    -5.1428    -0.7829 N.am    
  49 C49          -12.5194    -6.3275    -0.3852 C.3     
  50 C50          -11.9938    -6.8478     0.9542 C.3     
  51 C51          -10.5769    -7.3322     0.7838 C.2     
  52 O52          -10.0755    -7.3637    -0.3200 O.2     
  53 N53           -9.8671    -7.7304     1.8581 N.am    
  54 C54          -16.9571    -7.5026     1.2025 C.2     
  55 O55          -16.3151    -8.3931     1.7180 O.2     
  56 N56          -14.8733    -6.9005     0.1142 N.am    
  57 C57          -16.2883    -6.5458     0.2495 C.3     
  58 C58          -16.9682    -6.6300    -1.1186 C.3     
  59 C59          -20.3938    -8.3610     2.1054 C.2     
  60 O60          -20.8563    -7.6940     1.2042 O.2     
  61 N61          -18.2688    -7.3687     1.4820 N.am    
  62 C62          -18.9189    -8.2989     2.4085 C.3     
  63 C63          -18.7135    -7.8147     3.8453 C.3     
  64 C64          -17.2248    -7.8702     4.1942 C.3     
  65 C65          -17.0194    -7.3860     5.6309 C.3     
  66 N66          -15.5940    -7.4391     5.9651 N.pl3   
  67 C67          -15.1651    -7.0491     7.2117 C.2     
  68 N68          -16.0268    -6.6321     8.0964 N.2     
  69 N69          -13.8275    -7.0990     7.5252 N.pl3   
  70 C70          -23.4174    -9.6134     3.7075 C.2     
  71 O71          -22.8588    -9.9729     4.7222 O.2     
  72 N72          -21.1989    -9.1578     2.8358 N.am    
  73 C73          -22.6109    -9.3027     2.4730 C.3     
  74 C74          -22.7637   -10.4424     1.4638 C.3     
  75 C75          -24.2047   -10.4794     0.9507 C.3     
  76 C76          -24.4935    -9.2084     0.1494 C.3     
  77 C77          -24.3948   -11.7031     0.0521 C.3     
  78 C78          -26.9467   -10.2234     4.4387 C.2     
  79 O79          -27.2537   -10.1864     3.2659 O.2     
  80 N80          -24.7594    -9.4918     3.6840 N.am    
  81 C81          -25.5487    -9.8549     4.8636 C.3     
  82 C82          -25.6046    -8.6663     5.8254 C.3     
  83 C83          -24.1993    -8.3712     6.3538 C.3     
  84 C84          -24.2552    -7.1827     7.3156 C.3     
  85 N85          -22.9097    -6.9001     7.8214 N.pl3   
  86 C86          -22.7111    -5.8677     8.7073 C.2     
  87 N87          -23.7199    -5.1403     9.0971 N.2     
  88 N88          -21.4483    -5.6025     9.1820 N.pl3   
  89 C89          -30.1596   -10.5549     6.1242 C.2     
  90 O90          -29.7282   -10.5749     7.2575 O.2     
  91 N91          -27.8560   -10.5941     5.3619 N.am    
  92 C92          -29.2432   -10.8461     4.9638 C.3     
  93 C93          -29.3964   -12.3105     4.5480 C.3     
  94 C94          -30.8272   -12.5565     4.0650 C.3     
  95 C95          -31.0662   -11.7862     2.7649 C.3     
  96 C96          -31.0316   -14.0523     3.8166 C.3     
  97 C97          -33.7819   -10.4017     6.5913 C.2     
  98 O98          -33.9999   -10.7314     5.4447 O.2     
  99 N99          -31.4586   -10.2722     5.9025 N.am    
 100 C100         -32.3736   -10.0979     7.0333 C.3     
 101 C101         -32.2964    -8.6541     7.5339 C.3     
 102 C102         -30.9001    -8.3838     8.0978 C.3     
 103 C103         -30.8229    -6.9401     8.5984 C.3     
 104 N104         -29.4858    -6.6813     9.1383 N.pl3   
 105 C105         -29.1790    -5.4426     9.6498 C.2     
 106 N106         -30.0776    -4.4985     9.6543 N.2     
 107 N107         -27.9242    -5.1997    10.1564 N.pl3   
 108 C108         -37.1423    -9.8733     7.9300 C.2     
 109 O109         -36.7492    -9.3226     8.9365 O.2     
 110 N110         -34.7993   -10.3070     7.4702 N.am    
 111 C111         -36.1684   -10.6024     7.0406 C.3     
 112 C112         -36.4192   -12.1086     7.1365 C.3     
 113 C113         -35.5220   -12.8398     6.1358 C.3     
 114 C114         -36.1005   -12.5896     8.5535 C.3     
 115 C115         -40.7799    -9.8079     8.2855 C.2     
 116 O116         -40.9345   -10.6555     7.4319 O.2     
 117 N117         -38.4501    -9.8333     7.6069 N.am    
 118 C118         -39.4131    -9.2202     8.5250 C.3     
 119 C119         -39.4578    -7.7100     8.2834 C.3     
 120 O120         -39.9674    -7.4521     6.9736 O.3     
 121 C121         -44.1498    -9.3323     9.7316 C.2     
 122 O122         -43.7835    -8.4917    10.5185 O.2     
 123 N123         -41.8306    -9.3916     9.0199 N.am    
 124 C124         -43.1593    -9.9630     8.7871 C.3     
 125 O125         -45.4391    -9.7042     9.6987 O.3     
 126 C126          -6.3859    -1.1946   -21.2770 C.2     
 127 O127          -5.6884    -0.2096   -21.3959 O.2     
 128 C128          -1.2127    -5.9087   -38.6610 C.3     
 129 C129          -1.1042    -4.9048   -37.5115 C.3     
 130 C130          -1.9670    -5.3766   -36.3393 C.3     
 131 C131          -1.8585    -4.3727   -35.1898 C.3     
 132 C132          -2.7213    -4.8444   -34.0176 C.3     
 133 C133          -2.6128    -3.8405   -32.8682 C.3     
 134 C134          -3.4756    -4.3122   -31.6960 C.3     
 135 C135          -3.3671    -3.3083   -30.5465 C.3     
 136 C136          -4.2299    -3.7800   -29.3743 C.3     
 137 C137          -4.1214    -2.7761   -28.2248 C.3     
 138 C138          -4.9842    -3.2478   -27.0526 C.3     
 139 C139          -4.8757    -2.2439   -25.9031 C.3     
 140 C140          -5.7384    -2.7156   -24.7309 C.3     
 141 C141          -5.6300    -1.7117   -23.5814 C.3     
 142 C142          -6.4927    -2.1834   -22.4092 C.3     
 143 H143          -7.6790    -2.1530   -20.0629 H       
 144 H144          -5.8926    -0.0408   -19.0541 H       
 145 H145          -7.8791     1.1911   -18.1175 H       
 146 H146         -10.0948     0.6982   -19.2330 H       
 147 H147          -9.3669    -0.7798   -19.9066 H       
 148 H148         -10.6586    -1.1073   -17.7323 H       
 149 H149          -8.9759    -1.6870   -17.7034 H       
 150 H150          -9.3982    -0.1415   -16.9280 H       
 151 H151          -7.9295     0.8835   -21.1522 H       
 152 H152          -8.4561     2.3027   -20.2158 H       
 153 H153          -6.7342     1.8539   -20.2591 H       
 154 H154          -6.5466     0.2655   -16.5004 H       
 155 H155          -7.8359    -2.1154   -15.4065 H       
 156 H156          -5.8658    -2.6257   -13.9305 H       
 157 H157          -5.3321    -2.7566   -16.9329 H       
 158 H158          -4.5448    -3.7632   -15.6939 H       
 159 H159          -6.2909    -3.9284   -15.9971 H       
 160 H160          -4.8095    -0.3593   -14.1636 H       
 161 H161          -3.6765    -1.6895   -14.5032 H       
 162 H162          -4.3906    -0.7641   -15.8456 H       
 163 H163          -7.8134    -1.8493   -12.8088 H       
 164 H164          -7.6563     0.9543   -12.0070 H       
 165 H165         -10.3099    -0.5311   -12.2452 H       
 166 H166         -10.0921     1.0013   -11.3662 H       
 167 H167          -9.2842     2.0803   -13.4474 H       
 168 H168          -9.5021     0.5479   -14.3264 H       
 169 H169         -11.9232     0.5855   -13.7921 H       
 170 H170         -11.7053     2.1179   -12.9131 H       
 171 H171         -10.6892     2.4400   -15.5285 H       
 172 H172         -14.6449     2.6962   -14.9950 H       
 173 H173         -12.0556     3.5528   -17.1301 H       
 174 H174         -13.7159     3.6529   -16.8931 H       
 175 H175          -6.7676    -0.7740    -8.0906 H       
 176 H176          -8.2315     0.7319    -6.2638 H       
 177 H177          -6.7260     1.3173    -7.0446 H       
 178 H178          -9.6344     1.8364    -7.8834 H       
 179 H179          -8.2827     3.0116    -7.7551 H       
 180 H180          -7.1777     2.1331    -9.7057 H       
 181 H181          -8.8975     1.9853   -10.1804 H       
 182 H182          -8.0554    -1.5845    -5.8738 H       
 183 H183         -10.7842    -2.4177    -6.4957 H       
 184 H184         -10.2223    -4.8468    -6.1757 H       
 185 H185          -8.7030    -3.5410    -8.4758 H       
 186 H186          -9.3817    -5.1861    -8.4401 H       
 187 H187         -10.4672    -3.7754    -8.4459 H       
 188 H188          -8.0786    -4.5098    -4.9758 H       
 189 H189          -7.8506    -5.5292    -6.4171 H       
 190 H190          -7.3617    -3.8180    -6.4509 H       
 191 H191         -11.5518    -3.9385    -4.4874 H       
 192 H192          -9.9006    -3.5627    -2.1083 H       
 193 H193         -12.7037    -2.3717    -2.3111 H       
 194 H194         -11.7086    -2.4388    -0.8368 H       
 195 H195         -11.1865    -1.4454    -2.2184 H       
 196 H196         -11.3542    -4.5746    -0.1065 H       
 197 H197         -12.4100    -7.1022    -1.1441 H       
 198 H198         -12.0170    -6.0443     1.6905 H       
 199 H199         -12.6208    -7.6715     1.2954 H       
 200 H200         -10.2682    -7.7052     2.7409 H       
 201 H201          -8.9552    -8.0422     1.7484 H       
 202 H202         -14.5830    -7.8104     0.2839 H       
 203 H203         -16.3729    -5.5300     0.6354 H       
 204 H204         -16.8836    -7.6458    -1.5045 H       
 205 H205         -18.0210    -6.3661    -1.0179 H       
 206 H206         -16.4845    -5.9379    -1.8079 H       
 207 H207         -18.7823    -6.6565     1.0698 H       
 208 H208         -18.4823    -9.2909     2.2935 H       
 209 H209         -19.0703    -6.7888     3.9375 H       
 210 H210         -19.2709    -8.4560     4.5280 H       
 211 H211         -16.8680    -8.8960     4.1020 H       
 212 H212         -16.6675    -7.2289     3.5114 H       
 213 H213         -17.3762    -6.3601     5.7232 H       
 214 H214         -17.5768    -8.0273     6.3137 H       
 215 H215         -14.9528    -7.7495     5.3067 H       
 216 H216         -15.7242    -6.3569     8.9759 H       
 217 H217         -13.1863    -7.4093     6.8669 H       
 218 H218         -13.5249    -6.8238     8.4048 H       
 219 H219         -20.8435    -9.6352     3.6017 H       
 220 H220         -22.9692    -8.3738     2.0292 H       
 221 H221         -22.0842   -10.2804     0.6271 H       
 222 H222         -22.5256   -11.3900     1.9470 H       
 223 H223         -24.8900   -10.5395     1.7962 H       
 224 H224         -23.7498    -9.0997    -0.6400 H       
 225 H225         -25.4869    -9.2765    -0.2941 H       
 226 H226         -24.4497    -8.3437     0.8115 H       
 227 H227         -24.1890   -12.6085     0.6229 H       
 228 H228         -25.4213   -11.7295    -0.3134 H       
 229 H229         -23.7095   -11.6429    -0.7934 H       
 230 H230         -25.2028    -9.1638     2.8860 H       
 231 H231         -25.0848   -10.7052     5.3635 H       
 232 H232         -25.9863    -7.7911     5.2997 H       
 233 H233         -26.2638    -8.9050     6.6600 H       
 234 H234         -23.8176    -9.2464     6.8795 H       
 235 H235         -23.5401    -8.1325     5.5192 H       
 236 H236         -24.6369    -6.3074     6.7898 H       
 237 H237         -24.9144    -7.4213     8.1502 H       
 238 H238         -22.1589    -7.4415     7.5313 H       
 239 H239         -23.5798    -4.4118     9.7222 H       
 240 H240         -20.6975    -6.1439     8.8920 H       
 241 H241         -21.3082    -4.8741     9.8071 H       
 242 H242         -27.5919   -10.6940     6.2899 H       
 243 H243         -29.5033   -10.2010     4.1246 H       
 244 H244         -28.6974   -12.5344     3.7421 H       
 245 H245         -29.1853   -12.9546     5.4016 H       
 246 H246         -31.5307   -12.2148     4.8243 H       
 247 H247         -30.4020   -12.1676     1.9893 H       
 248 H248         -32.1022   -11.9149     2.4515 H       
 249 H249         -30.8646   -10.7274     2.9275 H       
 250 H250         -30.8613   -14.6010     4.7429 H       
 251 H251         -32.0509   -14.2275     3.4726 H       
 252 H252         -30.3281   -14.3939     3.0574 H       
 253 H253         -31.7877   -10.1841     4.9943 H       
 254 H254         -32.0907   -10.7769     7.8376 H       
 255 H255         -32.4927    -7.9718     6.7069 H       
 256 H256         -33.0401    -8.5005     8.3159 H       
 257 H257         -30.7038    -9.0662     8.9248 H       
 258 H258         -30.1564    -8.5374     7.3158 H       
 259 H259         -31.0191    -6.2578     7.7714 H       
 260 H260         -31.5665    -6.7865     9.3804 H       
 261 H261         -28.8171    -7.3839     9.1350 H       
 262 H262         -29.8611    -3.6245    10.0151 H       
 263 H263         -27.2554    -5.9023    10.1531 H       
 264 H264         -27.7077    -4.3257    10.5173 H       
 265 H265         -34.6250   -10.0434     8.3873 H       
 266 H266         -36.3038   -10.2764     6.0094 H       
 267 H267         -37.4642   -12.3182     6.9081 H       
 268 H268         -34.4773   -12.6235     6.3590 H       
 269 H269         -35.6947   -13.9135     6.2100 H       
 270 H270         -35.7549   -12.5033     5.1256 H       
 271 H271         -36.7396   -12.0687     9.2664 H       
 272 H272         -36.2792   -13.6627     8.6218 H       
 273 H273         -35.0554   -12.3800     8.7818 H       
 274 H274         -38.7538   -10.2105     6.7664 H       
 275 H275         -39.1090    -9.4147     9.5535 H       
 276 H276         -40.1065    -7.2426     9.0242 H       
 277 H277         -38.4522    -7.2984     8.3697 H       
 278 H278         -40.0236    -6.5127     6.7514 H       
 279 H279         -41.7069    -8.7138     9.7026 H       
 280 H280         -43.1275   -11.0388     8.9592 H       
 281 H281         -43.4633    -9.7684     7.7586 H       
 282 H282         -46.0370    -9.2716    10.3237 H       
 283 H283          -0.8654    -6.8856   -38.3243 H       
 284 H284          -2.2518    -5.9832   -38.9815 H       
 285 H285          -0.5980    -5.5727   -39.4961 H       
 286 H286          -0.0651    -4.8304   -37.1910 H       
 287 H287          -1.4514    -3.9280   -37.8482 H       
 288 H288          -3.0061    -5.4510   -36.6599 H       
 289 H289          -1.6197    -6.3534   -36.0026 H       
 290 H290          -0.8194    -4.2982   -34.8693 H       
 291 H291          -2.2057    -3.3959   -35.5266 H       
 292 H292          -3.7604    -4.9188   -34.3382 H       
 293 H293          -2.3740    -5.8212   -33.6809 H       
 294 H294          -1.5737    -3.7660   -32.5476 H       
 295 H295          -2.9600    -2.8637   -33.2049 H       
 296 H296          -4.5147    -4.3866   -32.0165 H       
 297 H297          -3.1283    -5.2890   -31.3592 H       
 298 H298          -2.3280    -3.2338   -30.2259 H       
 299 H299          -3.7143    -2.3315   -30.8832 H       
 300 H300          -5.2690    -3.8544   -29.6948 H       
 301 H301          -3.8826    -4.7568   -29.0376 H       
 302 H302          -3.0823    -2.7017   -27.9042 H       
 303 H303          -4.4686    -1.7993   -28.5615 H       
 304 H304          -6.0233    -3.3223   -27.3731 H       
 305 H305          -4.6369    -4.2246   -26.7159 H       
 306 H306          -3.8366    -2.1695   -25.5826 H       
 307 H307          -5.2229    -1.2671   -26.2398 H       
 308 H308          -6.7776    -2.7901   -25.0515 H       
 309 H309          -5.3912    -3.6924   -24.3942 H       
 310 H310          -4.5909    -1.6373   -23.2609 H       
 311 H311          -5.9772    -0.7349   -23.9181 H       
 312 H312          -6.1455    -3.1602   -22.0725 H       
 313 H313          -7.5319    -2.2579   -22.7298 H       
@<TRIPOS>BOND
   1    1    2 2
   2    1    4 1
   3    1   11 am
   4    3  126 am
   5    3    4 1
   6    3  143 1
   7    4    5 1
   8    4  144 1
   9    5    6 1
  10    5    8 1
  11    5  145 1
  12    6    7 1
  13    6  146 1
  14    6  147 1
  15    7  148 1
  16    7  149 1
  17    7  150 1
  18    8  151 1
  19    8  152 1
  20    8  153 1
  21    9   10 2
  22    9   12 1
  23    9   18 am
  24   11   12 1
  25   11  154 1
  26   12   13 1
  27   12  155 1
  28   13   14 1
  29   13   15 1
  30   13  156 1
  31   14  157 1
  32   14  158 1
  33   14  159 1
  34   15  160 1
  35   15  161 1
  36   15  162 1
  37   16   17 2
  38   16   19 1
  39   16   29 am
  40   18   19 1
  41   18  163 1
  42   19   20 1
  43   19  164 1
  44   20   21 1
  45   20  165 1
  46   20  166 1
  47   21   22 1
  48   21  167 1
  49   21  168 1
  50   22   23 1
  51   22  169 1
  52   22  170 1
  53   23   24 1
  54   23  171 1
  55   24   25 2
  56   24   26 1
  57   25  172 1
  58   26  173 1
  59   26  174 1
  60   27   28 2
  61   27   36 am
  62   27   30 1
  63   29   30 1
  64   29   33 1
  65   30   31 1
  66   30  175 1
  67   31   32 1
  68   31  176 1
  69   31  177 1
  70   32   33 1
  71   32  178 1
  72   32  179 1
  73   33  180 1
  74   33  181 1
  75   34   35 2
  76   34   37 1
  77   34   43 am
  78   36   37 1
  79   36  182 1
  80   37   38 1
  81   37  183 1
  82   38   39 1
  83   38   40 1
  84   38  184 1
  85   39  185 1
  86   39  186 1
  87   39  187 1
  88   40  188 1
  89   40  189 1
  90   40  190 1
  91   41   42 2
  92   41   44 1
  93   41   48 am
  94   43   44 1
  95   43  191 1
  96   44   45 1
  97   44  192 1
  98   45  193 1
  99   45  194 1
 100   45  195 1
 101   46   47 2
 102   46   49 1
 103   46   56 am
 104   48   49 1
 105   48  196 1
 106   49   50 1
 107   49  197 1
 108   50   51 1
 109   50  198 1
 110   50  199 1
 111   51   52 2
 112   51   53 am
 113   53  200 1
 114   53  201 1
 115   54   55 2
 116   54   57 1
 117   54   61 am
 118   56   57 1
 119   56  202 1
 120   57   58 1
 121   57  203 1
 122   58  204 1
 123   58  205 1
 124   58  206 1
 125   59   60 2
 126   59   62 1
 127   59   72 am
 128   61   62 1
 129   61  207 1
 130   62   63 1
 131   62  208 1
 132   63   64 1
 133   63  209 1
 134   63  210 1
 135   64   65 1
 136   64  211 1
 137   64  212 1
 138   65   66 1
 139   65  213 1
 140   65  214 1
 141   66   67 1
 142   66  215 1
 143   67   68 2
 144   67   69 1
 145   68  216 1
 146   69  217 1
 147   69  218 1
 148   70   71 2
 149   70   73 1
 150   70   80 am
 151   72   73 1
 152   72  219 1
 153   73   74 1
 154   73  220 1
 155   74   75 1
 156   74  221 1
 157   74  222 1
 158   75   76 1
 159   75   77 1
 160   75  223 1
 161   76  224 1
 162   76  225 1
 163   76  226 1
 164   77  227 1
 165   77  228 1
 166   77  229 1
 167   78   79 2
 168   78   81 1
 169   78   91 am
 170   80   81 1
 171   80  230 1
 172   81   82 1
 173   81  231 1
 174   82   83 1
 175   82  232 1
 176   82  233 1
 177   83   84 1
 178   83  234 1
 179   83  235 1
 180   84   85 1
 181   84  236 1
 182   84  237 1
 183   85   86 1
 184   85  238 1
 185   86   87 2
 186   86   88 1
 187   87  239 1
 188   88  240 1
 189   88  241 1
 190   89   90 2
 191   89   92 1
 192   89   99 am
 193   91   92 1
 194   91  242 1
 195   92   93 1
 196   92  243 1
 197   93   94 1
 198   93  244 1
 199   93  245 1
 200   94   95 1
 201   94   96 1
 202   94  246 1
 203   95  247 1
 204   95  248 1
 205   95  249 1
 206   96  250 1
 207   96  251 1
 208   96  252 1
 209   97   98 2
 210   97  100 1
 211   97  110 am
 212   99  100 1
 213   99  253 1
 214  100  101 1
 215  100  254 1
 216  101  102 1
 217  101  255 1
 218  101  256 1
 219  102  103 1
 220  102  257 1
 221  102  258 1
 222  103  104 1
 223  103  259 1
 224  103  260 1
 225  104  105 1
 226  104  261 1
 227  105  106 2
 228  105  107 1
 229  106  262 1
 230  107  263 1
 231  107  264 1
 232  108  109 2
 233  108  111 1
 234  108  117 am
 235  110  111 1
 236  110  265 1
 237  111  112 1
 238  111  266 1
 239  112  113 1
 240  112  114 1
 241  112  267 1
 242  113  268 1
 243  113  269 1
 244  113  270 1
 245  114  271 1
 246  114  272 1
 247  114  273 1
 248  115  116 2
 249  115  118 1
 250  115  123 am
 251  117  118 1
 252  117  274 1
 253  118  119 1
 254  118  275 1
 255  119  120 1
 256  119  276 1
 257  119  277 1
 258  120  278 1
 259  121  122 2
 260  121  124 1
 261  121  125 1
 262  123  124 1
 263  123  279 1
 264  124  280 1
 265  124  281 1
 266  125  282 1
 267  126  127 2
 268  126  142 1
 269  128  129 1
 270  128  283 1
 271  128  284 1
 272  128  285 1
 273  129  130 1
 274  129  286 1
 275  129  287 1
 276  130  131 1
 277  130  288 1
 278  130  289 1
 279  131  132 1
 280  131  290 1
 281  131  291 1
 282  132  133 1
 283  132  292 1
 284  132  293 1
 285  133  134 1
 286  133  294 1
 287  133  295 1
 288  134  135 1
 289  134  296 1
 290  134  297 1
 291  135  136 1
 292  135  298 1
 293  135  299 1
 294  136  137 1
 295  136  300 1
 296  136  301 1
 297  137  138 1
 298  137  302 1
 299  137  303 1
 300  138  139 1
 301  138  304 1
 302  138  305 1
 303  139  140 1
 304  139  306 1
 305  139  307 1
 306  140  141 1
 307  140  308 1
 308  140  309 1
 309  141  142 1
 310  141  310 1
 311  141  311 1
 312  142  312 1
 313  142  313 1

#	End of record

