#	Name: ASD02508080
#	Creating user name:	WinNT
#	Creation time:	15. 06. 2019 20:23

#	Modifying user name:	WinNT
#	Modification time:	15. 06. 2019 20:23

#	Program:	/corina/corina34_cracker 3.40 0067  02.08.2006

@<TRIPOS>MOLECULE
ASD02508080
  43   45    0    0    0
SMALL
NO_CHARGES


@<TRIPOS>ATOM
   1 C1             0.1932     1.2941    -0.9756 C.ar    
   2 C2             0.6843     0.3554    -1.8699 C.ar    
   3 C3             0.8782     1.5579     0.2099 C.ar    
   4 C4             2.0528     0.8787     0.4928 C.ar    
   5 C5             2.5413    -0.0596    -0.4038 C.ar    
   6 C6             1.8552    -0.3201    -1.5856 C.ar    
   7 N7            -0.9306     2.1241    -0.9797 N.am    
   8 C8            -0.9076     2.8412     0.1612 C.2     
   9 O9             0.1763     2.5060     0.8784 O.3     
  10 N10            3.7275    -0.7460    -0.1192 N.am    
  11 S11            4.9610     0.0252     0.6720 S.o2    
  12 C12            5.4444     1.3950    -0.3252 C.ar    
  13 C13            5.9877     1.1803    -1.5837 C.ar    
  14 O14           -1.7378     3.6675     0.4881 O.2     
  15 O15            4.3984     0.5705     1.8575 O.2     
  16 Cl16           2.4707    -1.4966    -2.7040 Cl      
  17 C17            5.2774     2.6837     0.1429 C.ar    
  18 C18            5.6562     3.7593    -0.6395 C.ar    
  19 C19            6.2027     3.5478    -1.8916 C.ar    
  20 C20            6.3673     2.2608    -2.3664 C.ar    
  21 O21            6.0600    -0.8756     0.6763 O.2     
  22 C22           -1.9475     2.2010    -2.0314 C.3     
  23 O23            6.1482    -0.0866    -2.0487 O.3     
  24 C24            6.7139    -0.2323    -3.3528 C.3     
  25 C25            5.4725     5.1643    -0.1264 C.3     
  26 C26           -3.0644     1.1981    -1.7351 C.3     
  27 H27            0.1520     0.1524    -2.7874 H       
  28 H28            2.5869     1.0802     1.4097 H       
  29 H29            3.8269    -1.6735    -0.3853 H       
  30 H30            4.8504     2.8516     1.1206 H       
  31 H31            6.4973     4.3895    -2.5008 H       
  32 H32            6.7943     2.0961    -3.3446 H       
  33 H33           -2.3626     3.2084    -2.0625 H       
  34 H34           -1.4935     1.9652    -2.9938 H       
  35 H35            6.7867    -1.2911    -3.6011 H       
  36 H36            6.0784     0.2692    -4.0826 H       
  37 H37            7.7083     0.2140    -3.3695 H       
  38 H38            6.3677     5.4743     0.4126 H       
  39 H39            5.3022     5.8383    -0.9660 H       
  40 H40            4.6146     5.1966     0.5452 H       
  41 H41           -2.6494     0.1907    -1.7039 H       
  42 H42           -3.5185     1.4339    -0.7726 H       
  43 H43           -3.8211     1.2553    -2.5175 H       
@<TRIPOS>BOND
   1    1    2 ar
   2    1    3 ar
   3    1    7 1
   4    2    6 ar
   5    2   27 1
   6    3    4 ar
   7    3    9 1
   8    4    5 ar
   9    4   28 1
  10    5    6 ar
  11    5   10 1
  12    6   16 1
  13    7    8 am
  14    7   22 1
  15    8    9 1
  16    8   14 2
  17   10   11 am
  18   10   29 1
  19   11   12 1
  20   11   15 2
  21   11   21 2
  22   12   13 ar
  23   12   17 ar
  24   13   23 1
  25   13   20 ar
  26   17   18 ar
  27   17   30 1
  28   18   19 ar
  29   18   25 1
  30   19   20 ar
  31   19   31 1
  32   20   32 1
  33   22   26 1
  34   22   33 1
  35   22   34 1
  36   23   24 1
  37   24   35 1
  38   24   36 1
  39   24   37 1
  40   25   38 1
  41   25   39 1
  42   25   40 1
  43   26   41 1
  44   26   42 1
  45   26   43 1

#	End of record

