#	Name: ASD01918188
#	Creating user name:	WinNT
#	Creation time:	15. 06. 2019 20:10

#	Modifying user name:	WinNT
#	Modification time:	15. 06. 2019 20:10

#	Program:	/corina/corina34_cracker 3.40 0067  02.08.2006

@<TRIPOS>MOLECULE
ASD01918188
  41   43    0    0    0
SMALL
NO_CHARGES


@<TRIPOS>ATOM
   1 N1             0.0426     1.3148     0.1323 N.ar    
   2 C2             0.0698    -0.0011     0.1440 C.ar    
   3 C3             1.2717    -0.6877     0.1655 C.ar    
   4 C4             2.4630     0.0236     0.1748 C.ar    
   5 C5             2.4072     1.4065     0.1621 C.ar    
   6 C6             1.1602     2.0345     0.1405 C.ar    
   7 N7             1.0881     3.4000     0.1278 N.2     
   8 N8            -0.0614     3.9851     0.1079 N.2     
   9 C9            -0.1333     5.3466     0.0952 C.ar    
  10 C10           -1.4468     7.3620     0.0664 C.ar    
  11 C11           -1.3795     5.9829     0.0793 C.ar    
  12 C12            1.0391     6.1109     0.1037 C.ar    
  13 C13            0.9648     7.4859     0.0908 C.ar    
  14 C14           -0.2733     8.1181     0.0697 C.ar    
  15 O15           -2.6561     7.9835     0.0505 O.3     
  16 C16           -3.8151     7.1476     0.0481 C.3     
  17 N17           -0.3432     9.5124     0.0563 N.am    
  18 C18            0.6797    10.2336    -0.4438 C.2     
  19 O19            1.6923     9.6741    -0.8178 O.2     
  20 C20            0.5706    11.7031    -0.5374 C.ar    
  21 C21           -0.5911    12.3495    -0.1088 C.ar    
  22 C22            1.6320    12.4554    -1.0504 C.ar    
  23 C23            1.5211    13.8315    -1.1345 C.ar    
  24 C24           -0.6865    13.7217    -0.1990 C.ar    
  25 C25            0.3653    14.4612    -0.7131 C.ar    
  26 F26            2.7621    11.8400    -1.4620 F       
  27 H27           -0.8585    -0.5529     0.1372 H       
  28 H28            1.2820    -1.7677     0.1754 H       
  29 H29            3.4126    -0.4904     0.1919 H       
  30 H30            3.3151     1.9914     0.1688 H       
  31 H31           -2.2865     5.3967     0.0768 H       
  32 H32            2.0021     5.6223     0.1208 H       
  33 H33            1.8702     8.0745     0.0975 H       
  34 H34           -3.8169     6.5263     0.9436 H       
  35 H35           -4.7109     7.7686     0.0349 H       
  36 H36           -3.8017     6.5104    -0.8362 H       
  37 H37           -1.1279     9.9621     0.4068 H       
  38 H38           -1.4131    11.7752     0.2922 H       
  39 H39            2.3394    14.4150    -1.5299 H       
  40 H40           -1.5846    14.2217     0.1323 H       
  41 H41            0.2837    15.5360    -0.7809 H       
@<TRIPOS>BOND
   1    1    2 ar
   2    1    6 ar
   3    2    3 ar
   4    2   27 1
   5    3    4 ar
   6    3   28 1
   7    4    5 ar
   8    4   29 1
   9    5    6 ar
  10    5   30 1
  11    6    7 1
  12    7    8 2
  13    8    9 1
  14    9   12 ar
  15    9   11 ar
  16   10   11 ar
  17   10   14 ar
  18   10   15 1
  19   11   31 1
  20   12   13 ar
  21   12   32 1
  22   13   14 ar
  23   13   33 1
  24   14   17 1
  25   15   16 1
  26   16   34 1
  27   16   35 1
  28   16   36 1
  29   17   18 am
  30   17   37 1
  31   18   19 2
  32   18   20 1
  33   20   21 ar
  34   20   22 ar
  35   21   24 ar
  36   21   38 1
  37   22   26 1
  38   22   23 ar
  39   23   25 ar
  40   23   39 1
  41   24   25 ar
  42   24   40 1
  43   25   41 1

#	End of record

