#	Name: ASD01910664
#	Creating user name:	WinNT
#	Creation time:	15. 06. 2019 19:56

#	Modifying user name:	WinNT
#	Modification time:	15. 06. 2019 19:56

#	Program:	/corina/corina34_cracker 3.40 0067  02.08.2006

@<TRIPOS>MOLECULE
ASD01910664
  32   34    0    0    0
SMALL
NO_CHARGES


@<TRIPOS>ATOM
   1 C1            -0.0167     1.3806     0.0096 C.ar    
   2 C2             0.0021    -0.0041     0.0020 C.ar    
   3 C3            -1.1829    -0.7188     0.0090 C.ar    
   4 C4            -2.3921    -0.0562     0.0241 C.ar    
   5 C5            -2.4197     1.3414     0.0324 C.ar    
   6 C6            -1.2198     2.0573     0.0305 C.ar    
   7 C7            -3.6719     2.0361     0.0480 C.1     
   8 C8            -4.6984     2.6056     0.0608 C.1     
   9 C9            -5.9505     3.3003     0.0765 C.ar    
  10 C10           -5.9733     4.7000     0.0847 C.ar    
  11 C11           -7.1674     5.3589     0.0989 C.ar    
  12 C12           -8.3659     4.6356     0.1047 C.ar    
  13 C13           -8.3457     3.2407     0.0970 C.ar    
  14 C14           -7.1499     2.5790     0.0777 C.ar    
  15 C15           -7.2182     6.8640     0.1098 C.3     
  16 C16           -8.4312     7.3486    -0.6810 C.3     
  17 N17           -9.6497     6.6792    -0.2338 N.am    
  18 C18           -9.6429     5.3780     0.1179 C.2     
  19 O19          -10.6747     4.8225     0.4419 O.2     
  20 Cl20           1.4758     2.2672     0.0001 Cl      
  21 H21            0.9460    -0.5287    -0.0098 H       
  22 H22           -1.1606    -1.7986     0.0023 H       
  23 H23           -3.3158    -0.6157     0.0292 H       
  24 H24           -1.2335     3.1372     0.0372 H       
  25 H25           -5.0478     5.2566     0.0801 H       
  26 H26           -9.2720     2.6855     0.1026 H       
  27 H27           -7.1304     1.4992     0.0713 H       
  28 H28           -7.2924     7.2164     1.1386 H       
  29 H29           -6.3092     7.2602    -0.3427 H       
  30 H30           -8.5423     8.4241    -0.5425 H       
  31 H31           -8.2756     7.1391    -1.7393 H       
  32 H32          -10.4791     7.1802    -0.1890 H       
@<TRIPOS>BOND
   1    1    2 ar
   2    1   20 1
   3    1    6 ar
   4    2    3 ar
   5    2   21 1
   6    3    4 ar
   7    3   22 1
   8    4    5 ar
   9    4   23 1
  10    5    6 ar
  11    5    7 1
  12    6   24 1
  13    7    8 3
  14    8    9 1
  15    9   10 ar
  16    9   14 ar
  17   10   11 ar
  18   10   25 1
  19   11   12 ar
  20   11   15 1
  21   12   13 ar
  22   12   18 1
  23   13   14 ar
  24   13   26 1
  25   14   27 1
  26   15   16 1
  27   15   28 1
  28   15   29 1
  29   16   17 1
  30   16   30 1
  31   16   31 1
  32   17   18 am
  33   17   32 1
  34   18   19 2

#	End of record

