#	Name: ASD06020110
#	Creating user name:	WinNT
#	Creation time:	15. 06. 2019 21:04

#	Modifying user name:	WinNT
#	Modification time:	15. 06. 2019 21:04

#	Program:	/corina/corina34_cracker 3.40 0067  02.08.2006

@<TRIPOS>MOLECULE
ASD06020110
  43   46    0    0    0
SMALL
NO_CHARGES


@<TRIPOS>ATOM
   1 C1             2.2993     1.3280     0.0132 C.ar    
   2 N2             2.2982     0.0106     0.0001 N.ar    
   3 C3             1.1548    -0.6720    -0.0054 C.ar    
   4 C4            -0.0487     0.0265     0.0031 C.ar    
   5 C5            -0.0034     1.4172     0.0168 C.ar    
   6 N6             1.1816     2.0252     0.0215 N.ar    
   7 N7             1.1633    -2.0597    -0.0196 N.pl3   
   8 N8            -1.1745     2.1590     0.0252 N.pl3   
   9 C9             3.6174     2.0584     0.0252 C.3     
  10 C10            2.3678    -2.7472    -0.1399 C.ar    
  11 C11            2.3853    -4.1424    -0.0416 C.ar    
  12 C12            3.5996    -4.8276    -0.1633 C.ar    
  13 C13            4.7622    -4.0458    -0.3834 C.ar    
  14 C14            4.6548    -2.6934    -0.4656 C.ar    
  15 N15            3.4880    -2.0785    -0.3518 N.ar    
  16 S16            1.1071    -5.3229     0.2235 S.3     
  17 C17            2.2843    -6.6279     0.1515 C.2     
  18 N18            3.4691    -6.1500    -0.0498 N.2     
  19 C19            1.9655    -8.0636     0.3002 C.ar    
  20 C20            2.9813    -9.0193     0.2258 C.ar    
  21 C21            2.6760   -10.3589     0.3655 C.ar    
  22 C22            1.3678   -10.7550     0.5783 C.ar    
  23 C23            0.3565    -9.8141     0.6527 C.ar    
  24 C24            0.6479    -8.4705     0.5214 C.ar    
  25 Cl25          -0.6216    -7.2908     0.6234 Cl      
  26 Cl26           4.6235    -8.5245    -0.0424 Cl      
  27 C27            1.0427   -12.2187     0.7293 C.3     
  28 N28            1.1298   -12.5960     2.1464 N.3     
  29 H29           -0.9933    -0.4971    -0.0014 H       
  30 H30            0.3299    -2.5506     0.0542 H       
  31 H31           -2.0337     1.7089     0.0214 H       
  32 H32           -1.1347     3.1282     0.0348 H       
  33 H33            3.9389     2.2448    -0.9995 H       
  34 H34            3.5018     3.0078     0.5481 H       
  35 H35            4.3647     1.4510     0.5358 H       
  36 H36            5.7263    -4.5218    -0.4846 H       
  37 H37            5.5448    -2.1049    -0.6333 H       
  38 H38            3.4604   -11.0990     0.3082 H       
  39 H39           -0.6627   -10.1306     0.8183 H       
  40 H40            0.0327   -12.4061     0.3649 H       
  41 H41            1.7530   -12.8102     0.1516 H       
  42 H42            0.5275   -12.0172     2.7123 H       
  43 H43            0.9160   -13.5738     2.2740 H       
@<TRIPOS>BOND
   1    1    2 ar
   2    1    6 ar
   3    1    9 1
   4    2    3 ar
   5    3    4 ar
   6    3    7 1
   7    4    5 ar
   8    4   29 1
   9    5    6 ar
  10    5    8 1
  11    7   10 1
  12    7   30 1
  13    8   31 1
  14    8   32 1
  15    9   33 1
  16    9   34 1
  17    9   35 1
  18   10   11 ar
  19   10   15 ar
  20   11   12 ar
  21   11   16 1
  22   12   13 ar
  23   12   18 1
  24   13   14 ar
  25   13   36 1
  26   14   15 ar
  27   14   37 1
  28   16   17 1
  29   17   18 2
  30   17   19 1
  31   19   20 ar
  32   19   24 ar
  33   20   21 ar
  34   20   26 1
  35   21   22 ar
  36   21   38 1
  37   22   23 ar
  38   22   27 1
  39   23   24 ar
  40   23   39 1
  41   24   25 1
  42   27   28 1
  43   27   40 1
  44   27   41 1
  45   28   42 1
  46   28   43 1

#	End of record

