#	Name: ASD01410505
#	Creating user name:	WinNT
#	Creation time:	15. 06. 2019 19:18

#	Modifying user name:	WinNT
#	Modification time:	15. 06. 2019 19:18

#	Program:	/corina/corina34_cracker 3.40 0067  02.08.2006

@<TRIPOS>MOLECULE
ASD01410505
  85   88    0    0    0
SMALL
NO_CHARGES


@<TRIPOS>ATOM
   1 C1             0.6243     1.4337     3.5993 C.ar    
   2 C2             1.1455     0.4207     4.3920 C.ar    
   3 C3             2.3650    -0.1365     4.0610 C.ar    
   4 N4             3.0354     0.2822     3.0048 N.ar    
   5 C5             2.5716     1.2452     2.2252 C.ar    
   6 C6             1.3518     1.8508     2.4981 C.ar    
   7 O7             3.2942     1.6449     1.1488 O.3     
   8 C8             4.5260     1.0982     0.9683 C.ar    
   9 C9             4.6453    -0.2462     0.6372 C.ar    
  10 C10            5.8907    -0.8112     0.4516 C.ar    
  11 C11            7.0348    -0.0387     0.5952 C.ar    
  12 C12            6.9213     1.3194     0.9294 C.ar    
  13 C13            5.6558     1.8833     1.1091 C.ar    
  14 N14            8.2926    -0.6102     0.4085 N.am    
  15 C15            8.8535    -0.6193    -0.8169 C.2     
  16 C16            9.0047    -1.2009     1.5444 C.3     
  17 O17            9.9204    -1.1690    -0.9914 O.2     
  18 C18            8.1549     0.0534    -1.9704 C.3     
  19 C19            8.6594    -0.5390    -3.2878 C.3     
  20 C20           10.1682    -0.3133    -3.4037 C.3     
  21 C21           10.4633     1.1877    -3.3733 C.3     
  22 C22            9.9587     1.7800    -2.0559 C.3     
  23 C23            8.4499     1.5544    -1.9400 C.3     
  24 C24            0.3891    -0.0656     5.6013 C.3     
  25 C25           -0.5239    -1.1960     5.2017 C.2     
  26 C26            8.2811    -0.8401     2.8434 C.3     
  27 C27            9.0425    -2.7223     1.3874 C.3     
  28 C28           11.9721     1.4133    -3.4892 C.3     
  29 O29            9.8591    -3.0653     0.2659 O.3     
  30 C30            7.8515     0.9920     4.3279 C.3     
  31 O31            8.3914     0.5656     3.0754 O.3     
  32 C32           -0.4986    -2.3880     5.7985 C.2     
  33 C33            9.9617    -4.4709     0.0298 C.3     
  34 N34           -1.4179    -1.0840     4.2354 N.2     
  35 C35           -2.1451    -2.1285     3.9858 C.2     
  36 S36           -1.7148    -3.4082     5.0347 S.3     
  37 N37           -3.1297    -2.1964     3.0126 N.pl3   
  38 C38           -3.4120    -1.0291     2.1735 C.3     
  39 C39           -3.8880    -3.4354     2.8230 C.3     
  40 C40            8.1304     2.1479     1.0845 C.2     
  41 O41            9.2257     1.6723     0.8596 O.2     
  42 O42            8.0212     3.4327     1.4758 O.3     
  43 C43            0.8274     2.9474     1.6073 C.3     
  44 F44           -0.4087     3.3897     2.0905 F       
  45 F45            1.7330     4.0136     1.5978 F       
  46 F46            0.6710     2.4567     0.3065 F       
  47 H47           -0.3294     1.8832     3.8338 H       
  48 H48            2.7752    -0.9249     4.6748 H       
  49 H49            3.7585    -0.8524     0.5249 H       
  50 H50            5.9753    -1.8568     0.1945 H       
  51 H51            5.5604     2.9278     1.3663 H       
  52 H52           10.0230    -0.8135     1.5761 H       
  53 H53            7.0800    -0.1074    -1.8878 H       
  54 H54            8.4492    -1.6083    -3.3094 H       
  55 H55            8.1541    -0.0524    -4.1220 H       
  56 H56           10.6735    -0.7999    -2.5694 H       
  57 H57           10.5277    -0.7353    -4.3422 H       
  58 H58            9.9580     1.6742    -4.2075 H       
  59 H59           10.4640     1.2934    -1.2216 H       
  60 H60           10.1689     2.8493    -2.0342 H       
  61 H61            7.9446     2.0409    -2.7742 H       
  62 H62            8.0905     1.9764    -1.0014 H       
  63 H63            1.0947    -0.4173     6.3540 H       
  64 H64           -0.2032     0.7519     6.0124 H       
  65 H65            7.2291    -1.1134     2.7613 H       
  66 H66            8.7335    -1.3821     3.6739 H       
  67 H67            9.4579    -3.1706     2.2899 H       
  68 H68            8.0311    -3.0964     1.2283 H       
  69 H69           12.3315     0.9913    -4.4277 H       
  70 H70           12.1823     2.4826    -3.4675 H       
  71 H71           12.4774     0.9267    -2.6549 H       
  72 H72            8.0519     2.0543     4.4672 H       
  73 H73            6.7750     0.8212     4.3366 H       
  74 H74            8.3157     0.4258     5.1354 H       
  75 H75            0.1542    -2.6777     6.6086 H       
  76 H76           10.3962    -4.9554     0.9042 H       
  77 H77            8.9694    -4.8813    -0.1574 H       
  78 H78           10.5978    -4.6482    -0.8374 H       
  79 H79           -2.7534    -0.2088     2.4588 H       
  80 H80           -3.2425    -1.2841     1.1274 H       
  81 H81           -4.4500    -0.7260     2.3100 H       
  82 H82           -4.7733    -3.4205     3.4588 H       
  83 H83           -4.1915    -3.5196     1.7795 H       
  84 H84           -3.2635    -4.2881     3.0897 H       
  85 H85            8.8421     3.9362     1.5636 H       
@<TRIPOS>BOND
   1    1    2 ar
   2    1    6 ar
   3    1   47 1
   4    2    3 ar
   5    2   24 1
   6    3    4 ar
   7    3   48 1
   8    4    5 ar
   9    5    6 ar
  10    5    7 1
  11    6   43 1
  12    7    8 1
  13    8    9 ar
  14    8   13 ar
  15    9   10 ar
  16    9   49 1
  17   10   11 ar
  18   10   50 1
  19   11   12 ar
  20   11   14 1
  21   12   13 ar
  22   12   40 1
  23   13   51 1
  24   14   15 am
  25   14   16 1
  26   15   17 2
  27   15   18 1
  28   16   27 1
  29   16   26 1
  30   16   52 1
  31   18   19 1
  32   18   23 1
  33   18   53 1
  34   19   20 1
  35   19   54 1
  36   19   55 1
  37   20   21 1
  38   20   56 1
  39   20   57 1
  40   21   22 1
  41   21   28 1
  42   21   58 1
  43   22   23 1
  44   22   59 1
  45   22   60 1
  46   23   61 1
  47   23   62 1
  48   24   25 1
  49   24   63 1
  50   24   64 1
  51   25   34 1
  52   25   32 2
  53   26   31 1
  54   26   65 1
  55   26   66 1
  56   27   29 1
  57   27   67 1
  58   27   68 1
  59   28   69 1
  60   28   70 1
  61   28   71 1
  62   29   33 1
  63   30   31 1
  64   30   72 1
  65   30   73 1
  66   30   74 1
  67   32   36 1
  68   32   75 1
  69   33   76 1
  70   33   77 1
  71   33   78 1
  72   34   35 2
  73   35   36 1
  74   35   37 1
  75   37   38 1
  76   37   39 1
  77   38   79 1
  78   38   80 1
  79   38   81 1
  80   39   82 1
  81   39   83 1
  82   39   84 1
  83   40   41 2
  84   40   42 1
  85   42   85 1
  86   43   44 1
  87   43   45 1
  88   43   46 1

#	End of record

