#	Name: ASD01410379
#	Creating user name:	WinNT
#	Creation time:	15. 06. 2019 19:17

#	Modifying user name:	WinNT
#	Modification time:	15. 06. 2019 19:17

#	Program:	/corina/corina34_cracker 3.40 0067  02.08.2006

@<TRIPOS>MOLECULE
ASD01410379
  26   27    0    0    0
SMALL
NO_CHARGES


@<TRIPOS>ATOM
   1 S1             0.1196     1.7714     0.8290 S.3     
   2 C2             0.1914     0.0070     0.9791 C.2     
   3 N3             1.4325    -0.3623     0.6426 N.am    
   4 C4             2.3135     0.5586     0.2887 C.2     
   5 C5             1.8075     1.9381     0.3063 C.2     
   6 O6             3.4560     0.2843    -0.0275 O.2     
   7 S7            -1.0838    -1.0275     1.4633 S.2     
   8 C8             2.4760     3.0761    -0.0054 C.2     
   9 C9             1.7535     4.3536    -0.0889 C.ar    
  10 C10            2.4484     5.5632     0.0201 C.ar    
  11 C11            1.7633     6.7569    -0.0592 C.ar    
  12 C12            0.3917     6.7610    -0.2457 C.ar    
  13 C13           -0.3032     5.5688    -0.3545 C.ar    
  14 C14            0.3678     4.3666    -0.2836 C.ar    
  15 N15            1.7875    -1.6812     0.6649 N.3     
  16 C16           -0.3491     8.0706    -0.3302 C.3     
  17 H17            3.5392     3.0438    -0.1924 H       
  18 H18            3.5185     5.5617     0.1664 H       
  19 H19            2.2981     7.6914     0.0248 H       
  20 H20           -1.3733     5.5806    -0.4999 H       
  21 H21           -0.1751     3.4373    -0.3735 H       
  22 H22            1.0126    -2.2594     0.9536 H       
  23 H23            2.1434    -1.9750    -0.2323 H       
  24 H24           -0.3893     8.3990    -1.3688 H       
  25 H25           -1.3627     7.9398     0.0489 H       
  26 H26            0.1687     8.8203     0.2681 H       
@<TRIPOS>BOND
   1    1    2 1
   2    1    5 1
   3    2    3 am
   4    2    7 2
   5    3    4 am
   6    3   15 1
   7    4    5 1
   8    4    6 2
   9    5    8 2
  10    8    9 1
  11    8   17 1
  12    9   10 ar
  13    9   14 ar
  14   10   11 ar
  15   10   18 1
  16   11   12 ar
  17   11   19 1
  18   12   13 ar
  19   12   16 1
  20   13   14 ar
  21   13   20 1
  22   14   21 1
  23   15   22 1
  24   15   23 1
  25   16   24 1
  26   16   25 1
  27   16   26 1

#	End of record

