#	Name: ASD03240546
#	Creating user name:	WinNT
#	Creation time:	15. 06. 2019 20:35

#	Modifying user name:	WinNT
#	Modification time:	15. 06. 2019 20:35

#	Program:	/corina/corina34_cracker 3.40 0067  02.08.2006

@<TRIPOS>MOLECULE
ASD03240546
  73   80    0    0    0
SMALL
NO_CHARGES


@<TRIPOS>ATOM
   1 C1            -0.0166     1.3755     0.0096 C.ar    
   2 C2             0.0021    -0.0041     0.0020 C.ar    
   3 N3             1.1422    -0.6683    -0.0058 N.ar    
   4 C4             2.3145    -0.0481    -0.0058 C.ar    
   5 C5             2.3702     1.3442    -0.0124 C.ar    
   6 C6             1.1860     2.0698     0.0019 C.ar    
   7 N7             3.4820    -0.8058     0.0220 N.pl3   
   8 C8             4.3589    -0.7198     1.0999 C.ar    
   9 C9             4.9953     0.4884     1.4041 C.ar    
  10 C10            4.7643     1.6830     0.5625 C.2     
  11 N11            3.5938     2.0276    -0.0512 N.pl3   
  12 C12            4.6043    -1.8396     1.8832 C.ar    
  13 C13            5.4635    -1.7546     2.9620 C.ar    
  14 C14            6.0848    -0.5568     3.2710 C.ar    
  15 C15            5.8559     0.5643     2.4989 C.ar    
  16 N16            5.6762     2.5932     0.2860 N.2     
  17 C17            5.1464     3.5396    -0.5047 C.2     
  18 C18            3.8223     3.2038    -0.7365 C.2     
  19 C19            2.8498     3.9547    -1.5537 C.ar    
  20 C20            2.7512     5.3427    -1.4283 C.ar    
  21 C21            2.0273     3.2816    -2.4606 C.ar    
  22 C22            1.1206     3.9900    -3.2211 C.ar    
  23 C23            1.0244     5.3640    -3.0875 C.ar    
  24 C24            1.8399     6.0379    -2.1953 C.ar    
  25 C25            5.8504     4.7294    -1.0341 C.ar    
  26 C26            0.0315     6.1309    -3.9224 C.3     
  27 N27           -1.0473     5.2834    -4.4476 N.3     
  28 C28           -0.4695     7.4215    -3.2530 C.3     
  29 C29           -0.3822     8.0812    -4.6394 C.3     
  30 C30            0.6847     7.0273    -4.9876 C.3     
  31 C31            6.8206     5.3685    -0.2602 C.ar    
  32 C32            7.4755     6.4748    -0.7533 C.ar    
  33 C33            7.1696     6.9570    -2.0260 C.ar    
  34 C34            6.2002     6.3188    -2.7998 C.ar    
  35 C35            5.5485     5.2092    -2.3098 C.ar    
  36 C36            7.8748     8.1487    -2.5563 C.ar    
  37 C37            8.4486     8.1146    -3.8260 C.ar    
  38 C38            9.1038     9.2269    -4.3144 C.ar    
  39 C39            9.1920    10.3737    -3.5463 C.ar    
  40 C40            8.6247    10.4132    -2.2850 C.ar    
  41 C41            7.9615     9.3095    -1.7890 C.ar    
  42 C42            8.3543     6.8655    -4.6638 C.3     
  43 H43           -0.9556     1.9091     0.0170 H       
  44 H44           -0.9306    -0.5486     0.0028 H       
  45 H45            1.2002     3.1497     0.0064 H       
  46 H46            3.6864    -1.3999    -0.7170 H       
  47 H47            4.1230    -2.7778     1.6493 H       
  48 H48            5.6512    -2.6283     3.5684 H       
  49 H49            6.7506    -0.4991     4.1194 H       
  50 H50            6.3420     1.4976     2.7419 H       
  51 H51            3.3867     5.8698    -0.7322 H       
  52 H52            2.1016     2.2094    -2.5661 H       
  53 H53            0.4844     3.4711    -3.9228 H       
  54 H54            1.7594     7.1103    -2.0962 H       
  55 H55           -0.6743     4.4617    -4.8991 H       
  56 H56           -1.6970     5.0315    -3.7179 H       
  57 H57           -1.4865     7.3473    -2.8680 H       
  58 H58            0.2297     7.8367    -2.5271 H       
  59 H59           -1.2958     7.9862    -5.2264 H       
  60 H60            0.0019     9.1009    -4.6143 H       
  61 H61            1.6999     7.3342    -4.7362 H       
  62 H62            0.5982     6.6370    -6.0016 H       
  63 H63            7.0573     4.9954     0.7253 H       
  64 H64            8.2259     6.9695    -0.1545 H       
  65 H65            5.9635     6.6928    -3.7849 H       
  66 H66            4.7982     4.7150    -2.9091 H       
  67 H67            9.5489     9.2015    -5.2982 H       
  68 H68            9.7060    11.2415    -3.9324 H       
  69 H69            8.6972    11.3111    -1.6893 H       
  70 H70            7.5186     9.3416    -0.8045 H       
  71 H71            7.4511     6.9038    -5.2728 H       
  72 H72            9.2273     6.7963    -5.3127 H       
  73 H73            8.3161     5.9927    -4.0118 H       
@<TRIPOS>BOND
   1    1    2 ar
   2    1    6 ar
   3    1   43 1
   4    2    3 ar
   5    2   44 1
   6    3    4 ar
   7    4    5 ar
   8    4    7 1
   9    5    6 ar
  10    5   11 1
  11    6   45 1
  12    7    8 1
  13    7   46 1
  14    8    9 ar
  15    8   12 ar
  16    9   10 1
  17    9   15 ar
  18   10   11 1
  19   10   16 2
  20   11   18 1
  21   12   13 ar
  22   12   47 1
  23   13   14 ar
  24   13   48 1
  25   14   15 ar
  26   14   49 1
  27   15   50 1
  28   16   17 1
  29   17   18 2
  30   17   25 1
  31   18   19 1
  32   19   20 ar
  33   19   21 ar
  34   20   24 ar
  35   20   51 1
  36   21   22 ar
  37   21   52 1
  38   22   23 ar
  39   22   53 1
  40   23   24 ar
  41   23   26 1
  42   24   54 1
  43   25   31 ar
  44   25   35 ar
  45   26   27 1
  46   26   28 1
  47   26   30 1
  48   27   55 1
  49   27   56 1
  50   28   29 1
  51   28   57 1
  52   28   58 1
  53   29   30 1
  54   29   59 1
  55   29   60 1
  56   30   61 1
  57   30   62 1
  58   31   32 ar
  59   31   63 1
  60   32   33 ar
  61   32   64 1
  62   33   34 ar
  63   33   36 1
  64   34   35 ar
  65   34   65 1
  66   35   66 1
  67   36   37 ar
  68   36   41 ar
  69   37   38 ar
  70   37   42 1
  71   38   39 ar
  72   38   67 1
  73   39   40 ar
  74   39   68 1
  75   40   41 ar
  76   40   69 1
  77   41   70 1
  78   42   71 1
  79   42   72 1
  80   42   73 1

#	End of record

