#	Name: ASD01811279
#	Creating user name:	WinNT
#	Creation time:	15. 06. 2019 19:26

#	Modifying user name:	WinNT
#	Modification time:	15. 06. 2019 19:26

#	Program:	/corina/corina34_cracker 3.40 0067  02.08.2006

@<TRIPOS>MOLECULE
ASD01811279
  67   71    0    0    0
SMALL
NO_CHARGES


@<TRIPOS>ATOM
   1 C1             6.9259     5.8813    -4.9048 C.ar    
   2 C2             7.8890     5.0986    -5.5448 C.ar    
   3 C3             8.2908     3.9061    -4.9796 C.ar    
   4 C4             7.7419     3.4852    -3.7813 C.ar    
   5 C5             6.7872     4.2558    -3.1417 C.ar    
   6 C6             6.3762     5.4504    -3.6957 C.ar    
   7 N7             8.1500     0.1665    -1.1851 N.am    
   8 C8             9.2671     1.1209    -1.1837 C.3     
   9 C9             8.7858     2.4441    -1.7872 C.3     
  10 C10            8.1856     2.1810    -3.1702 C.3     
  11 C11            6.9820     1.2453    -3.0362 C.3     
  12 C12            7.4428    -0.0916    -2.4468 C.3     
  13 C13            7.7845    -0.4644    -0.0516 C.2     
  14 C14            8.5810    -0.2892     1.1819 C.ar    
  15 C15            7.9395    -0.1178     2.4109 C.ar    
  16 C16            8.6818     0.0459     3.5632 C.ar    
  17 C17           10.0619     0.0415     3.5095 C.ar    
  18 C18           10.7155    -0.1288     2.2876 C.ar    
  19 C19            9.9727    -0.3003     1.1217 C.ar    
  20 O20            6.8002    -1.1775    -0.0432 O.2     
  21 C21           12.1938    -0.1327     2.2320 C.2     
  22 N22           12.9878    -0.1145     3.2763 N.2     
  23 C23           10.8640     0.2214     4.7726 C.3     
  24 C24            6.5083     7.1232    -5.4827 C.1     
  25 N25            6.1770     8.1083    -5.9412 N.1     
  26 C26           14.2710    -0.1246     2.8725 C.ar    
  27 C27           14.2674    -0.1513     1.4620 C.ar    
  28 N28           12.9373    -0.1618     1.0845 N.pl3   
  29 C29           15.5058    -0.1150     3.5304 C.ar    
  30 C30           16.6631    -0.1320     2.7713 C.ar    
  31 N31           16.6140    -0.1570     1.4454 N.ar    
  32 C32           15.4726    -0.1672     0.7833 C.ar    
  33 N33           17.9014    -0.1222     3.4105 N.pl3   
  34 C34           17.9723    -0.2048     4.8715 C.3     
  35 C35           19.1323    -0.0293     2.6215 C.3     
  36 C36           19.5061     1.4420     2.4309 C.3     
  37 O37           19.8247     2.0206     3.6981 O.3     
  38 H38            8.3180     5.4259    -6.4804 H       
  39 H39            9.0353     3.2996    -5.4737 H       
  40 H40            6.3628     3.9213    -2.2066 H       
  41 H41            5.6312     6.0512    -3.1953 H       
  42 H42            9.6044     1.2871    -0.1607 H       
  43 H43           10.0877     0.7238    -1.7813 H       
  44 H44            8.0280     2.8851    -1.1396 H       
  45 H45            9.6285     3.1291    -1.8807 H       
  46 H46            8.9365     1.7172    -3.8097 H       
  47 H47            6.2412     1.6975    -2.3768 H       
  48 H48            6.5408     1.0770    -4.0186 H       
  49 H49            8.1147    -0.5876    -3.1474 H       
  50 H50            6.5765    -0.7253    -2.2572 H       
  51 H51            6.8607    -0.1131     2.4596 H       
  52 H52            8.1811     0.1783     4.5110 H       
  53 H53           10.4736    -0.4365     0.1746 H       
  54 H54           11.1604    -0.7546     5.1569 H       
  55 H55           11.7540     0.8124     4.5567 H       
  56 H56           10.2577     0.7365     5.5177 H       
  57 H57           12.5958    -0.1804     0.1767 H       
  58 H58           15.5550    -0.0943     4.6091 H       
  59 H59           15.4795    -0.1877    -0.2965 H       
  60 H60           18.0288    -1.2505     5.1739 H       
  61 H61           18.8587     0.3235     5.2227 H       
  62 H62           17.0821     0.2511     5.3048 H       
  63 H63           19.9385    -0.5443     3.1440 H       
  64 H64           18.9757    -0.4935     1.6478 H       
  65 H65           20.3703     1.5147     1.7706 H       
  66 H66           18.6651     1.9762     1.9887 H       
  67 H67           20.0717     2.9544     3.6531 H       
@<TRIPOS>BOND
   1    1    2 ar
   2    1    6 ar
   3    1   24 1
   4    2    3 ar
   5    2   38 1
   6    3    4 ar
   7    3   39 1
   8    4    5 ar
   9    4   10 1
  10    5    6 ar
  11    5   40 1
  12    6   41 1
  13    7    8 1
  14    7   12 1
  15    7   13 am
  16    8    9 1
  17    8   42 1
  18    8   43 1
  19    9   10 1
  20    9   44 1
  21    9   45 1
  22   10   11 1
  23   10   46 1
  24   11   12 1
  25   11   47 1
  26   11   48 1
  27   12   49 1
  28   12   50 1
  29   13   14 1
  30   13   20 2
  31   14   15 ar
  32   14   19 ar
  33   15   16 ar
  34   15   51 1
  35   16   17 ar
  36   16   52 1
  37   17   18 ar
  38   17   23 1
  39   18   19 ar
  40   18   21 1
  41   19   53 1
  42   21   22 2
  43   21   28 1
  44   22   26 1
  45   23   54 1
  46   23   55 1
  47   23   56 1
  48   24   25 3
  49   26   27 ar
  50   26   29 ar
  51   27   28 1
  52   27   32 ar
  53   28   57 1
  54   29   30 ar
  55   29   58 1
  56   30   31 ar
  57   30   33 1
  58   31   32 ar
  59   32   59 1
  60   33   34 1
  61   33   35 1
  62   34   60 1
  63   34   61 1
  64   34   62 1
  65   35   36 1
  66   35   63 1
  67   35   64 1
  68   36   37 1
  69   36   65 1
  70   36   66 1
  71   37   67 1

#	End of record

