#	Name: ASD05170119
#	Creating user name:	WinNT
#	Creation time:	15. 06. 2019 20:57

#	Modifying user name:	WinNT
#	Modification time:	15. 06. 2019 20:57

#	Program:	/corina/corina34_cracker 3.40 0067  02.08.2006

@<TRIPOS>MOLECULE
ASD05170119
  42   45    0    0    0
SMALL
NO_CHARGES


@<TRIPOS>ATOM
   1 C1            -0.0347     1.3808    -0.0562 C.ar    
   2 C2            -0.0184    -0.0028    -0.0723 C.ar    
   3 C3             1.2104    -0.6507    -0.0783 C.ar    
   4 C4             2.3699     0.1003    -0.0681 C.ar    
   5 N5             2.3211     1.4190    -0.0529 N.ar    
   6 C6             1.1707     2.0710    -0.0467 C.ar    
   7 O7             1.1677     3.4279    -0.0309 O.3     
   8 C8             2.4395     4.0794    -0.0218 C.3     
   9 C9             2.2387     5.5729    -0.0046 C.2     
  10 C10            1.0057     6.2387     0.0072 C.2     
  11 N11            3.1880     6.4795     0.0075 N.2     
  12 C12            1.3205     7.5679     0.0184 C.2     
  13 C13            0.4773     8.7726     0.0380 C.2     
  14 N14            2.6953     7.6557     0.0294 N.pl3   
  15 C15            3.3727     8.9570     0.0787 C.3     
  16 C16            2.5017    10.0049    -0.6129 C.3     
  17 N17            1.1094     9.9525    -0.1731 N.am    
  18 O18           -0.7218     8.7131     0.2326 O.2     
  19 C19            3.5973     9.3612     1.5371 C.3     
  20 Cl20           1.2881    -2.3849    -0.0978 Cl      
  21 C21            0.4174    11.1428     0.0385 C.ar    
  22 N22            0.3754    11.6700     1.2527 N.ar    
  23 C23           -0.2694    12.7967     1.4960 C.ar    
  24 C24           -0.9288    13.4693     0.4811 C.ar    
  25 C25           -0.9072    12.9481    -0.8038 C.ar    
  26 C26           -0.2174    11.7685    -1.0275 C.ar    
  27 F27           -0.2863    13.2987     2.7502 F       
  28 H28           -0.9722     1.9170    -0.0556 H       
  29 H29           -0.9399    -0.5660    -0.0796 H       
  30 H30            3.3281    -0.3979    -0.0724 H       
  31 H31            2.9961     3.7775     0.8654 H       
  32 H32            2.9983     3.7982    -0.9144 H       
  33 H33            0.0202     5.7968     0.0074 H       
  34 H34            4.3329     8.8872    -0.4324 H       
  35 H35            2.9024    10.9951    -0.3960 H       
  36 H36            2.5394     9.8396    -1.6896 H       
  37 H37            4.2153     8.6113     2.0309 H       
  38 H38            4.1003    10.3276     1.5730 H       
  39 H39            2.6363     9.4327     2.0465 H       
  40 H40           -1.4545    14.3897     0.6880 H       
  41 H41           -1.4136    13.4534    -1.6130 H       
  42 H42           -0.1771    11.3378    -2.0171 H       
@<TRIPOS>BOND
   1    1    2 ar
   2    1    6 ar
   3    1   28 1
   4    2    3 ar
   5    2   29 1
   6    3    4 ar
   7    3   20 1
   8    4    5 ar
   9    4   30 1
  10    5    6 ar
  11    6    7 1
  12    7    8 1
  13    8    9 1
  14    8   31 1
  15    8   32 1
  16    9   11 2
  17    9   10 1
  18   10   12 2
  19   10   33 1
  20   11   14 1
  21   12   14 1
  22   12   13 1
  23   13   17 am
  24   13   18 2
  25   14   15 1
  26   15   16 1
  27   15   19 1
  28   15   34 1
  29   16   17 1
  30   16   35 1
  31   16   36 1
  32   17   21 1
  33   19   37 1
  34   19   38 1
  35   19   39 1
  36   21   22 ar
  37   21   26 ar
  38   22   23 ar
  39   23   24 ar
  40   23   27 1
  41   24   25 ar
  42   24   40 1
  43   25   26 ar
  44   25   41 1
  45   26   42 1

#	End of record

