#	Name: ASD00842020
#	Creating user name:	WinNT
#	Creation time:	15. 06. 2019 18:43

#	Modifying user name:	WinNT
#	Modification time:	15. 06. 2019 18:43

#	Program:	/corina/corina34_cracker 3.40 0067  02.08.2006

@<TRIPOS>MOLECULE
ASD00842020
  93   98    0    0    0
SMALL
NO_CHARGES


@<TRIPOS>ATOM
   1 C1             0.8816     1.5117    -0.7026 C.ar    
   2 C2             1.2156     0.1729    -0.8446 C.ar    
   3 C3             1.1977    -0.6652     0.2611 C.ar    
   4 C4             0.8474    -0.1648     1.4999 C.ar    
   5 C5             0.5143     1.1702     1.6387 C.ar    
   6 C6             0.5319     2.0074     0.5387 C.ar    
   7 C7             1.5596    -2.1203     0.1103 C.3     
   8 C8             1.3458    -2.8582     1.4148 C.2     
   9 C9             0.7388    -2.7624    -1.0099 C.3     
  10 C10           -0.7282    -2.5331    -0.7525 C.2     
  11 N11           -1.6491    -3.0700    -1.5773 N.am    
  12 O12           -1.0802    -1.8655     0.1969 O.2     
  13 C13           -3.0754    -2.7595    -1.4101 C.3     
  14 C14           -3.8568    -4.0729    -1.3040 C.3     
  15 C15           -3.5423    -4.9485    -2.5191 C.3     
  16 C16           -2.0476    -5.2761    -2.5408 C.3     
  17 C17           -1.2452    -3.9719    -2.6644 C.3     
  18 N18           -4.3154    -6.1949    -2.4374 N.3     
  19 C19           -4.1301    -7.0098    -3.6462 C.3     
  20 C20           -4.8859    -8.3313    -3.4882 C.3     
  21 N21           -6.3103    -8.0533    -3.2572 N.3     
  22 C22           -6.4957    -7.2384    -2.0484 C.3     
  23 C23           -5.7399    -5.9170    -2.2065 C.3     
  24 H24           -6.7267    -7.6078    -4.0611 H       
  25 O25            0.2938    -2.9892     2.0038 O.2     
  26 N26            2.5394    -3.3414     1.7971 N.am    
  27 C27            3.0395    -2.2732    -0.1586 C.ar    
  28 C28            3.5537    -3.0182     0.9000 C.ar    
  29 C29            3.8506    -1.8351    -1.1744 C.ar    
  30 C30            5.2169    -2.1372    -1.1538 C.ar    
  31 C31            5.7409    -2.8857    -0.0928 C.ar    
  32 C32            4.9151    -3.3213     0.9213 C.ar    
  33 F33            7.0585    -3.1827    -0.0636 F       
  34 C34            2.5515    -5.9185     2.7628 C.ar    
  35 C35            1.3056    -6.3717     2.3535 C.ar    
  36 C36            3.6166    -6.7959     2.8385 C.ar    
  37 C37            3.4439    -8.1258     2.5065 C.ar    
  38 C38            2.1996    -8.5840     2.0965 C.ar    
  39 C39            1.1297    -7.7061     2.0202 C.ar    
  40 O40            2.0303    -9.8924     1.7706 O.3     
  41 O41            0.2585    -5.5086     2.2797 O.3     
  42 C42            3.1762   -10.7400     1.8729 C.3     
  43 C43           -0.9948    -6.0443     1.8505 C.3     
  44 C44           -2.0449    -4.9317     1.8302 C.3     
  45 C45            6.0722    -1.6850    -2.2095 C.1     
  46 N46            6.7506    -1.3262    -3.0471 N.1     
  47 O47            1.5595    -0.3171    -2.0646 O.3     
  48 C48            1.9713    -0.1168    -4.4376 C.3     
  49 C49            1.4479     0.5736    -3.1765 C.3     
  50 S50            2.7776    -4.2215     3.1795 S.o2    
  51 O51            4.1491    -4.0712     3.5196 O.2     
  52 O52            1.7164    -3.8798     4.0605 O.2     
  53 H53            0.8991     2.1670    -1.5609 H       
  54 H54            0.8333    -0.8168     2.3608 H       
  55 H55            0.2400     1.5593     2.6081 H       
  56 H56            0.2713     3.0496     0.6497 H       
  57 H57            1.0144    -2.3148    -1.9647 H       
  58 H58            0.9395    -3.8334    -1.0393 H       
  59 H59           -3.2181    -2.1750    -0.5012 H       
  60 H60           -3.4293    -2.1923    -2.2711 H       
  61 H61           -3.5662    -4.5965    -0.3933 H       
  62 H62           -4.9253    -3.8593    -1.2762 H       
  63 H63           -3.8103    -4.4143    -3.4307 H       
  64 H64           -1.7740    -5.7884    -1.6184 H       
  65 H65           -1.8284    -5.9189    -3.3934 H       
  66 H66           -1.4509    -3.5063    -3.6282 H       
  67 H67           -0.1802    -4.1888    -2.5810 H       
  68 H68           -4.5169    -6.4708    -4.5110 H       
  69 H69           -3.0687    -7.2128    -3.7887 H       
  70 H70           -4.7737    -8.9251    -4.3953 H       
  71 H71           -4.4807    -8.8827    -2.6398 H       
  72 H72           -7.5571    -7.0355    -1.9059 H       
  73 H73           -6.1088    -7.7775    -1.1836 H       
  74 H74           -5.8521    -5.3231    -1.2993 H       
  75 H75           -6.1450    -5.3655    -3.0549 H       
  76 H76            3.4358    -1.2587    -1.9882 H       
  77 H77            5.3245    -3.8984     1.7373 H       
  78 H78            4.5856    -6.4412     3.1573 H       
  79 H79            4.2780    -8.8094     2.5658 H       
  80 H80            0.1606    -8.0608     1.7017 H       
  81 H81            3.9603   -10.3724     1.2110 H       
  82 H82            3.5384   -10.7388     2.9009 H       
  83 H83            2.9040   -11.7554     1.5848 H       
  84 H84           -0.8880    -6.4614     0.8492 H       
  85 H85           -1.3097    -6.8285     2.5391 H       
  86 H86           -3.0009    -5.3404     1.5028 H       
  87 H87           -2.1518    -4.5146     2.8315 H       
  88 H88           -1.7301    -4.1476     1.1416 H       
  89 H89            1.9679     0.5904    -5.2670 H       
  90 H90            2.9884    -0.4682    -4.2639 H       
  91 H91            1.3306    -0.9645    -4.6803 H       
  92 H92            0.4025     0.8472    -3.3194 H       
  93 H93            2.0352     1.4712    -2.9833 H       
@<TRIPOS>BOND
   1    1    2 ar
   2    1    6 ar
   3    1   53 1
   4    2    3 ar
   5    2   47 1
   6    3    4 ar
   7    3    7 1
   8    4    5 ar
   9    4   54 1
  10    5    6 ar
  11    5   55 1
  12    6   56 1
  13    7    8 1
  14    7    9 1
  15    7   27 1
  16    8   25 2
  17    8   26 am
  18    9   10 1
  19    9   57 1
  20    9   58 1
  21   10   11 am
  22   10   12 2
  23   11   13 1
  24   11   17 1
  25   13   14 1
  26   13   59 1
  27   13   60 1
  28   14   15 1
  29   14   61 1
  30   14   62 1
  31   15   16 1
  32   15   18 1
  33   15   63 1
  34   16   17 1
  35   16   64 1
  36   16   65 1
  37   17   66 1
  38   17   67 1
  39   18   19 1
  40   18   23 1
  41   19   20 1
  42   19   68 1
  43   19   69 1
  44   20   21 1
  45   20   70 1
  46   20   71 1
  47   21   22 1
  48   21   24 1
  49   22   23 1
  50   22   72 1
  51   22   73 1
  52   23   74 1
  53   23   75 1
  54   26   50 am
  55   26   28 1
  56   27   28 ar
  57   27   29 ar
  58   28   32 ar
  59   29   30 ar
  60   29   76 1
  61   30   31 ar
  62   30   45 1
  63   31   32 ar
  64   31   33 1
  65   32   77 1
  66   34   35 ar
  67   34   36 ar
  68   34   50 1
  69   35   41 1
  70   35   39 ar
  71   36   37 ar
  72   36   78 1
  73   37   38 ar
  74   37   79 1
  75   38   39 ar
  76   38   40 1
  77   39   80 1
  78   40   42 1
  79   41   43 1
  80   42   81 1
  81   42   82 1
  82   42   83 1
  83   43   44 1
  84   43   84 1
  85   43   85 1
  86   44   86 1
  87   44   87 1
  88   44   88 1
  89   45   46 3
  90   47   49 1
  91   48   49 1
  92   48   89 1
  93   48   90 1
  94   48   91 1
  95   49   92 1
  96   49   93 1
  97   50   51 2
  98   50   52 2

#	End of record

