#	Name: ASD02560554
#	Creating user name:	WinNT
#	Creation time:	15. 06. 2019 20:25

#	Modifying user name:	WinNT
#	Modification time:	15. 06. 2019 20:25

#	Program:	/corina/corina34_cracker 3.40 0067  02.08.2006

@<TRIPOS>MOLECULE
ASD02560554
  46   49    0    0    0
SMALL
NO_CHARGES


@<TRIPOS>ATOM
   1 N1            -0.0191     1.2805     0.0820 N.2     
   2 N2            -0.0010    -0.0042     0.0570 N.2     
   3 C3             1.1980     1.7475     0.0504 C.2     
   4 N4             2.0451     0.6719     0.0018 N.pl3   
   5 C5             1.2383    -0.4336     0.0077 C.2     
   6 S6             1.7637    -2.1147    -0.0412 S.3     
   7 C7             0.1570    -2.9474    -0.0038 C.3     
   8 C8             0.3637    -4.4397    -0.0386 C.2     
   9 O9             1.4867    -4.8955    -0.0842 O.2     
  10 N10           -0.6993    -5.2679    -0.0191 N.am    
  11 C11            3.4470     0.6983    -0.0450 C.ar    
  12 Br12           1.7002     3.5705     0.0673 Br      
  13 C13            4.1021     0.7342    -1.2698 C.ar    
  14 C14            5.4833     0.7605    -1.3121 C.ar    
  15 C15            6.2124     0.7507    -0.1371 C.ar    
  16 C16            5.5628     0.7150     1.0827 C.ar    
  17 C17            4.1821     0.6943     1.1318 C.ar    
  18 C18           -0.5125    -6.6452    -0.1332 C.ar    
  19 C19           -1.5311    -7.4444    -0.6462 C.ar    
  20 C20           -1.3495    -8.8049    -0.7601 C.ar    
  21 C21           -0.1405    -9.3827    -0.3603 C.ar    
  22 C22            0.8794    -8.5769     0.1536 C.ar    
  23 C23            0.6929    -7.2168     0.2603 C.ar    
  24 C24            0.0577   -10.8390    -0.4801 C.2     
  25 O25           -0.8299   -11.5383    -0.9267 O.2     
  26 Cl26          -3.0314    -6.7252    -1.1420 Cl      
  27 O27            1.2234   -11.3943    -0.0944 O.3     
  28 C28            7.7184     0.7785    -0.1865 C.3     
  29 C29            8.4258     1.9536     0.4913 C.3     
  30 C30            8.4723     0.5629     1.1273 C.3     
  31 Cl31           3.1869     0.7454    -2.7449 Cl      
  32 H32           -0.3722    -2.6751     0.9094 H       
  33 H33           -0.4308    -2.6417    -0.8693 H       
  34 H34           -1.5944    -4.9060     0.0743 H       
  35 H35            5.9935     0.7884    -2.2636 H       
  36 H36            6.1352     0.7074     1.9985 H       
  37 H37            3.6756     0.6664     2.0853 H       
  38 H38           -2.1398    -9.4246    -1.1572 H       
  39 H39            1.8143    -9.0202     0.4633 H       
  40 H40            1.4810    -6.5940     0.6570 H       
  41 H41            1.3066   -12.3527    -0.1920 H       
  42 H42            8.1664     0.3779    -1.0958 H       
  43 H43            9.3395     2.3260     0.0280 H       
  44 H44            7.8021     2.7067     0.9729 H       
  45 H45            7.8792     0.4009     2.0273 H       
  46 H46            9.4166     0.0202     1.0824 H       
@<TRIPOS>BOND
   1    1    2 1
   2    1    3 2
   3    2    5 2
   4    3    4 1
   5    3   12 1
   6    4    5 1
   7    4   11 1
   8    5    6 1
   9    6    7 1
  10    7    8 1
  11    7   32 1
  12    7   33 1
  13    8    9 2
  14    8   10 am
  15   10   18 1
  16   10   34 1
  17   11   13 ar
  18   11   17 ar
  19   13   14 ar
  20   13   31 1
  21   14   15 ar
  22   14   35 1
  23   15   16 ar
  24   15   28 1
  25   16   17 ar
  26   16   36 1
  27   17   37 1
  28   18   19 ar
  29   18   23 ar
  30   19   20 ar
  31   19   26 1
  32   20   21 ar
  33   20   38 1
  34   21   22 ar
  35   21   24 1
  36   22   23 ar
  37   22   39 1
  38   23   40 1
  39   24   25 2
  40   24   27 1
  41   27   41 1
  42   28   29 1
  43   28   30 1
  44   28   42 1
  45   29   30 1
  46   29   43 1
  47   29   44 1
  48   30   45 1
  49   30   46 1

#	End of record

