#	Name: ASD03331544
#	Creating user name:	WinNT
#	Creation time:	15. 06. 2019 20:39

#	Modifying user name:	WinNT
#	Modification time:	15. 06. 2019 20:39

#	Program:	/corina/corina34_cracker 3.40 0067  02.08.2006

@<TRIPOS>MOLECULE
ASD03331544
  61   63    0    0    0
SMALL
NO_CHARGES


@<TRIPOS>ATOM
   1 C1             0.7480     1.7334     3.7604 C.ar    
   2 C2             0.7955     0.3459     3.8980 C.ar    
   3 C3             1.8268     2.4449     3.0406 C.2     
   4 N4             1.7347     3.6977     2.5041 N.pl3   
   5 C5             2.9305     3.9778     1.9225 C.2     
   6 C6             3.7393     2.9009     2.1252 C.2     
   7 N7             3.0329     1.9799     2.8163 N.2     
   8 C8             0.5694     4.5851     2.5543 C.3     
   9 C9             0.5901     5.5215     1.3440 C.3     
  10 C10            1.3737     6.7889     1.6817 C.3     
  11 C11            2.8212     6.4473     2.0209 C.3     
  12 C12            3.2723     5.2455     1.1849 C.3     
  13 C13            5.1360     2.7663     1.6751 C.2     
  14 O14            5.6667     3.6717     1.0605 O.2     
  15 N15            5.8252     1.6400     1.9446 N.am    
  16 C16            7.2138     1.5062     1.4972 C.3     
  17 C17            7.5561     0.0458     1.3513 C.2     
  18 C18            7.8363     1.5846     3.9156 C.3     
  19 N19            8.3605    -0.3610     0.3494 N.am    
  20 O20            7.1076    -0.7634     2.1355 O.2     
  21 C21            8.1456     2.1479     2.5272 C.3     
  22 C22            9.5990     1.8379     2.1631 C.3     
  23 C23            7.9333     3.6631     2.5327 C.3     
  24 C24            8.9544     0.6233    -0.5587 C.3     
  25 C25           -0.2148    -0.3135     4.5707 C.ar    
  26 C26           -1.2747     0.4028     5.1085 C.ar    
  27 C27           -1.3249     1.7806     4.9732 C.ar    
  28 C28           -0.3232     2.4473     4.2989 C.ar    
  29 F29           -2.2610    -0.2456     5.7658 F       
  30 F30           -0.1712    -1.6571     4.7048 F       
  31 C31            8.6411    -1.7874     0.1685 C.3     
  32 H32            1.6203    -0.2115     3.4791 H       
  33 H33           -0.3427     3.9886     2.5368 H       
  34 H34            0.6007     5.1747     3.4705 H       
  35 H35            1.0643     5.0158     0.5029 H       
  36 H36           -0.4319     5.7884     1.0751 H       
  37 H37            1.3538     7.4635     0.8258 H       
  38 H38            0.9102     7.2821     2.5361 H       
  39 H39            3.4581     7.3036     1.7992 H       
  40 H40            2.8979     6.2022     3.0802 H       
  41 H41            4.3495     5.2958     1.0258 H       
  42 H42            2.7595     5.2574     0.2231 H       
  43 H43            5.4019     0.9179     2.4348 H       
  44 H44            7.3356     2.0057     0.5361 H       
  45 H45            7.9875     0.5051     3.9117 H       
  46 H46            8.5001     2.0418     4.6494 H       
  47 H47            6.8009     1.8054     4.1750 H       
  48 H48            9.7982     2.1738     1.1455 H       
  49 H49           10.2648     2.3556     2.8536 H       
  50 H50            9.7692     0.7634     2.2309 H       
  51 H51            6.8979     3.8840     2.7920 H       
  52 H52            8.5971     4.1204     3.2664 H       
  53 H53            8.1536     4.0645     1.5435 H       
  54 H54            9.8873     0.9935    -0.1336 H       
  55 H55            9.1550     0.1543    -1.5220 H       
  56 H56            8.2628     1.4545    -0.6963 H       
  57 H57           -2.1523     2.3335     5.3929 H       
  58 H58           -0.3639     3.5215     4.1947 H       
  59 H59            7.8959    -2.2227    -0.4975 H       
  60 H60            9.6330    -1.9103    -0.2664 H       
  61 H61            8.6030    -2.2906     1.1346 H       
@<TRIPOS>BOND
   1    1    2 ar
   2    1    3 1
   3    1   28 ar
   4    2   25 ar
   5    2   32 1
   6    3    4 1
   7    3    7 2
   8    4    5 1
   9    4    8 1
  10    5    6 2
  11    5   12 1
  12    6    7 1
  13    6   13 1
  14    8    9 1
  15    8   33 1
  16    8   34 1
  17    9   10 1
  18    9   35 1
  19    9   36 1
  20   10   11 1
  21   10   37 1
  22   10   38 1
  23   11   12 1
  24   11   39 1
  25   11   40 1
  26   12   41 1
  27   12   42 1
  28   13   14 2
  29   13   15 am
  30   15   16 1
  31   15   43 1
  32   16   21 1
  33   16   17 1
  34   16   44 1
  35   17   19 am
  36   17   20 2
  37   18   21 1
  38   18   45 1
  39   18   46 1
  40   18   47 1
  41   19   31 1
  42   19   24 1
  43   21   22 1
  44   21   23 1
  45   22   48 1
  46   22   49 1
  47   22   50 1
  48   23   51 1
  49   23   52 1
  50   23   53 1
  51   24   54 1
  52   24   55 1
  53   24   56 1
  54   25   26 ar
  55   25   30 1
  56   26   27 ar
  57   26   29 1
  58   27   28 ar
  59   27   57 1
  60   28   58 1
  61   31   59 1
  62   31   60 1
  63   31   61 1

#	End of record

