#	Name: ASD00990019
#	Creating user name:	WinNT
#	Creation time:	15. 06. 2019 18:54

#	Modifying user name:	WinNT
#	Modification time:	15. 06. 2019 18:54

#	Program:	/corina/corina34_cracker 3.40 0067  02.08.2006

@<TRIPOS>MOLECULE
ASD00990019
  31   32    0    0    0
SMALL
NO_CHARGES


@<TRIPOS>ATOM
   1 C1            -0.0184     1.5028     0.0103 C.2     
   2 N2             1.3897    -0.4735    -0.0138 N.am    
   3 C3             0.0021    -0.0041     0.0020 C.3     
   4 O4             1.0197     2.1211     0.0037 O.2     
   5 O5            -1.1898     2.1580     0.0194 O.3     
   6 C6             2.0957    -0.7151     1.2470 C.3     
   7 C7             2.0169    -0.6832    -1.1881 C.2     
   8 O8             1.4325    -0.4833    -2.2319 O.2     
   9 C9             3.4443    -1.1662    -1.2044 C.3     
  10 S10            4.8552    -0.8925    -4.8569 S.3     
  11 C11            4.4717    -0.2960    -3.2336 C.2     
  12 N12            3.8937    -1.3152    -2.5907 N.am    
  13 C13            3.7288    -2.5140    -3.2611 C.ar    
  14 C14            4.2032    -2.5124    -4.5736 C.ar    
  15 C15            3.1536    -3.7000    -2.7806 C.ar    
  16 C16            3.0659    -4.8148    -3.5833 C.ar    
  17 C17            3.5429    -4.7920    -4.8835 C.ar    
  18 C18            4.1126    -3.6341    -5.3774 C.ar    
  19 O19            4.6907     0.8172    -2.7926 O.2     
  20 Cl20           2.3490    -6.2671    -2.9584 Cl      
  21 H21           -0.4983    -0.3791     0.8948 H       
  22 H22           -0.5153    -0.3696    -0.8850 H       
  23 H23           -1.1523     3.1243     0.0245 H       
  24 H24            1.9414    -1.7485     1.5576 H       
  25 H25            3.1612    -0.5329     1.1075 H       
  26 H26            1.7096    -0.0437     2.0140 H       
  27 H27            4.0786    -0.4423    -0.6927 H       
  28 H28            3.5081    -2.1284    -0.6963 H       
  29 H29            2.7759    -3.7390    -1.7696 H       
  30 H30            3.4704    -5.6717    -5.5058 H       
  31 H31            4.4879    -3.6055    -6.3897 H       
@<TRIPOS>BOND
   1    1    3 1
   2    1    4 2
   3    1    5 1
   4    2    3 1
   5    2    6 1
   6    2    7 am
   7    3   21 1
   8    3   22 1
   9    5   23 1
  10    6   24 1
  11    6   25 1
  12    6   26 1
  13    7    8 2
  14    7    9 1
  15    9   12 1
  16    9   27 1
  17    9   28 1
  18   10   11 1
  19   10   14 1
  20   11   12 am
  21   11   19 2
  22   12   13 1
  23   13   14 ar
  24   13   15 ar
  25   14   18 ar
  26   15   16 ar
  27   15   29 1
  28   16   17 ar
  29   16   20 1
  30   17   18 ar
  31   17   30 1
  32   18   31 1

#	End of record

