#	Name: ASD01670061
#	Creating user name:	WinNT
#	Creation time:	15. 06. 2019 19:22

#	Modifying user name:	WinNT
#	Modification time:	15. 06. 2019 19:22

#	Program:	/corina/corina34_cracker 3.40 0067  02.08.2006

@<TRIPOS>MOLECULE
ASD01670061
  35   38    0    0    0
SMALL
NO_CHARGES


@<TRIPOS>ATOM
   1 C1             0.0599     1.2982    -0.5887 C.ar    
   2 C2             0.0754    -0.0732    -0.4058 C.ar    
   3 C3             1.2206     2.0287    -0.4503 C.ar    
   4 C4             2.0408     4.2915     0.7771 C.ar    
   5 C5             1.2557    -0.7176    -0.0833 C.ar    
   6 C6             1.0708     5.2687     0.6876 C.ar    
   7 C7             2.4182     1.3842    -0.1242 C.ar    
   8 C8             3.1152     4.2844    -0.1161 C.ar    
   9 C9             3.2025     5.2855    -1.1132 C.ar    
  10 C10            2.4249     0.0040     0.0585 C.ar    
  11 C11            1.1479     6.2539    -0.2864 C.ar    
  12 C12            2.2136     6.2668    -1.1907 C.ar    
  13 C13            3.7820     1.9247     0.0796 C.2     
  14 C14            4.6787     0.8149     0.4056 C.2     
  15 C15            4.1450     3.2479    -0.0211 C.2     
  16 C16            4.3291     5.2915    -2.0615 C.2     
  17 C17            3.8285    -0.4337     0.3984 C.3     
  18 C18            1.1102     8.1953    -1.3873 C.3     
  19 O19            4.2427     4.6859    -3.1115 O.2     
  20 O20            5.8685     0.8841     0.6358 O.2     
  21 O21            5.4561     5.9686    -1.7648 O.3     
  22 O22            0.3268     7.3054    -0.5705 O.3     
  23 O23            2.0558     7.3239    -2.0348 O.3     
  24 H24           -0.8631     1.7971    -0.8450 H       
  25 H25           -0.8364    -0.6417    -0.5149 H       
  26 H26            1.2052     3.0990    -0.5940 H       
  27 H27            1.9718     3.5327     1.5425 H       
  28 H28            1.2632    -1.7882     0.0586 H       
  29 H29            0.2437     5.2666     1.3821 H       
  30 H30            5.1896     3.5221    -0.0301 H       
  31 H31            3.8456    -0.9028     1.3821 H       
  32 H32            4.1951    -1.1310    -0.3549 H       
  33 H33            0.4800     8.6921    -2.1250 H       
  34 H34            1.6269     8.9284    -0.7680 H       
  35 H35            6.1683     5.9433    -2.4183 H       
@<TRIPOS>BOND
   1    1    2 ar
   2    1    3 ar
   3    1   24 1
   4    2    5 ar
   5    2   25 1
   6    3    7 ar
   7    3   26 1
   8    4    8 ar
   9    4    6 ar
  10    4   27 1
  11    5   10 ar
  12    5   28 1
  13    6   11 ar
  14    6   29 1
  15    7   13 1
  16    7   10 ar
  17    8    9 ar
  18    8   15 1
  19    9   16 1
  20    9   12 ar
  21   10   17 1
  22   11   12 ar
  23   11   22 1
  24   12   23 1
  25   13   14 1
  26   13   15 2
  27   14   17 1
  28   14   20 2
  29   15   30 1
  30   16   19 2
  31   16   21 1
  32   17   31 1
  33   17   32 1
  34   18   23 1
  35   18   22 1
  36   18   33 1
  37   18   34 1
  38   21   35 1

#	End of record

