#	Name: ASD01910761
#	Creating user name:	WinNT
#	Creation time:	15. 06. 2019 19:56

#	Modifying user name:	WinNT
#	Modification time:	15. 06. 2019 19:56

#	Program:	/corina/corina34_cracker 3.40 0067  02.08.2006

@<TRIPOS>MOLECULE
ASD01910761
  50   53    0    0    0
SMALL
NO_CHARGES


@<TRIPOS>ATOM
   1 C1             0.0729     1.7558    -0.3724 C.ar    
   2 C2             0.0160     0.3748    -0.3996 C.ar    
   3 C3             1.1802    -0.3673    -0.3535 C.ar    
   4 C4             2.4095     0.2751    -0.2803 C.ar    
   5 C5             2.4644     1.6628    -0.2536 C.ar    
   6 C6             1.2961     2.3997    -0.2994 C.ar    
   7 N7             3.5882    -0.4729    -0.2331 N.3     
   8 C8             4.7650     0.4032    -0.1586 C.3     
   9 C9             6.0177    -0.4483     0.0734 C.3     
  10 N10            6.0784    -1.4839    -0.9693 N.am    
  11 C11            4.8851    -2.3131    -1.1967 C.3     
  12 C12            3.6770    -1.3882    -1.3787 C.3     
  13 C13            7.1976    -1.6677    -1.6973 C.2     
  14 C14            7.2814    -2.7931    -2.6529 C.ar    
  15 O15            8.1380    -0.9085    -1.5685 O.2     
  16 C16            7.9007    -2.6143    -3.8919 C.ar    
  17 C17            7.9807    -3.6640    -4.7861 C.ar    
  18 C18            7.4502    -4.8964    -4.4629 C.ar    
  19 C19            6.8273    -5.0901    -3.2260 C.ar    
  20 C20            6.7480    -4.0354    -2.3167 C.ar    
  21 C21            6.2767    -6.3691    -2.8917 C.1     
  22 C22            5.8254    -7.4176    -2.6177 C.1     
  23 C23            5.2748    -8.6966    -2.2835 C.ar    
  24 C24            4.6521    -8.8917    -1.0479 C.ar    
  25 C25            4.1237   -10.1262    -0.7331 C.ar    
  26 C26            4.2096   -11.1702    -1.6372 C.ar    
  27 C27            4.8252   -10.9846    -2.8625 C.ar    
  28 C28            5.3526    -9.7540    -3.1936 C.ar    
  29 Cl29           1.3627     4.1341    -0.2667 Cl      
  30 H30           -0.8387     2.3336    -0.4127 H       
  31 H31           -0.9399    -0.1246    -0.4566 H       
  32 H32            1.1345    -1.4461    -0.3741 H       
  33 H33            3.4187     2.1653    -0.1963 H       
  34 H34            4.8679     0.9545    -1.0933 H       
  35 H35            4.6443     1.1050     0.6666 H       
  36 H36            6.9050     0.1822     0.0153 H       
  37 H37            5.9636    -0.9195     1.0548 H       
  38 H38            5.0236    -2.9156    -2.0945 H       
  39 H39            4.7221    -2.9636    -0.3374 H       
  40 H40            2.7673    -1.9856    -1.4383 H       
  41 H41            3.7950    -0.8120    -2.2964 H       
  42 H42            8.3177    -1.6526    -4.1517 H       
  43 H43            8.4604    -3.5195    -5.7428 H       
  44 H44            7.5159    -5.7128    -5.1669 H       
  45 H45            6.2682    -4.1788    -1.3599 H       
  46 H46            4.5850    -8.0779    -0.3410 H       
  47 H47            3.6421   -10.2784     0.2215 H       
  48 H48            3.7943   -12.1348    -1.3851 H       
  49 H49            4.8892   -11.8042    -3.5629 H       
  50 H50            5.8329    -9.6105    -4.1503 H       
@<TRIPOS>BOND
   1    1    2 ar
   2    1    6 ar
   3    1   30 1
   4    2    3 ar
   5    2   31 1
   6    3    4 ar
   7    3   32 1
   8    4    5 ar
   9    4    7 1
  10    5    6 ar
  11    5   33 1
  12    6   29 1
  13    7    8 1
  14    7   12 1
  15    8    9 1
  16    8   34 1
  17    8   35 1
  18    9   10 1
  19    9   36 1
  20    9   37 1
  21   10   11 1
  22   10   13 am
  23   11   12 1
  24   11   38 1
  25   11   39 1
  26   12   40 1
  27   12   41 1
  28   13   14 1
  29   13   15 2
  30   14   16 ar
  31   14   20 ar
  32   16   17 ar
  33   16   42 1
  34   17   18 ar
  35   17   43 1
  36   18   19 ar
  37   18   44 1
  38   19   20 ar
  39   19   21 1
  40   20   45 1
  41   21   22 3
  42   22   23 1
  43   23   24 ar
  44   23   28 ar
  45   24   25 ar
  46   24   46 1
  47   25   26 ar
  48   25   47 1
  49   26   27 ar
  50   26   48 1
  51   27   28 ar
  52   27   49 1
  53   28   50 1

#	End of record

