#	Name: ASD01880174
#	Creating user name:	WinNT
#	Creation time:	15. 06. 2019 19:40

#	Modifying user name:	WinNT
#	Modification time:	15. 06. 2019 19:40

#	Program:	/corina/corina34_cracker 3.40 0067  02.08.2006

@<TRIPOS>MOLECULE
ASD01880174
  69   73    0    0    0
SMALL
NO_CHARGES


@<TRIPOS>ATOM
   1 C1            -0.0166     1.3765     0.0096 C.ar    
   2 C2             0.0021    -0.0041     0.0020 C.ar    
   3 C3            -1.1907    -0.7221     0.0090 C.ar    
   4 C4            -2.4029    -0.0685     0.0241 C.ar    
   5 C5            -2.4432     1.3214     0.0324 C.ar    
   6 C6            -1.2399     2.0497     0.0307 C.ar    
   7 O7             1.1904    -0.6651    -0.0128 O.3     
   8 C8             1.1383    -2.0932    -0.0200 C.3     
   9 C9             5.1939    -3.6989     2.4102 C.ar    
  10 C10            6.4874    -4.2099     2.3920 C.ar    
  11 C11            7.1463    -4.4655     3.5925 C.ar    
  12 C12            6.5056    -4.2077     4.8048 C.ar    
  13 C13            5.2213    -3.7003     4.8154 C.ar    
  14 C14            4.5639    -3.4453     3.6280 C.ar    
  15 C15            8.5228    -5.0098     3.5819 C.2     
  16 N16            9.2421    -5.2982     2.5180 N.2     
  17 N17           10.3929    -5.7519     2.8627 N.2     
  18 N18           10.4953    -5.7877     4.1471 N.2     
  19 N19            9.2832    -5.3002     4.6665 N.pl3   
  20 C20            1.2754     2.1522     0.0014 C.3     
  21 C21            1.6989     2.4224    -1.4437 C.3     
  22 C22            3.0106     3.2099    -1.4520 C.3     
  23 N23           -3.4727     2.2388     0.0479 N.pl3   
  24 C24           -2.9636     3.5085     0.0509 C.2     
  25 C25           -1.6219     3.4639     0.0416 C.2     
  26 C26           -4.8988     1.9036     0.0596 C.3     
  27 C27            2.5398    -2.6469    -0.0363 C.ar    
  28 C28            3.1917    -2.9063     1.1520 C.ar    
  29 C29            4.4876    -3.4183     1.1354 C.ar    
  30 C30            5.1180    -3.6654    -0.0821 C.ar    
  31 C31            4.4566    -3.4022    -1.2648 C.ar    
  32 C32            3.1684    -2.8994    -1.2425 C.ar    
  33 C33           -5.3527     1.6556     1.4995 C.3     
  34 C34           -5.1186     2.9175     2.3325 C.3     
  35 C35           -6.8421     1.3056     1.5117 C.3     
  36 C36           -4.5513     0.4959     2.0943 C.3     
  37 H37           -1.1652    -1.8018     0.0023 H       
  38 H38           -3.3221    -0.6355     0.0290 H       
  39 H39            0.6201    -2.4423     0.8731 H       
  40 H40            0.6032    -2.4328    -0.9068 H       
  41 H41            6.9788    -4.4081     1.4510 H       
  42 H42            7.0148    -4.4055     5.7365 H       
  43 H43            4.7291    -3.5022     5.7560 H       
  44 H44            3.5597    -3.0481     3.6427 H       
  45 H45            9.0408    -5.1988     5.6002 H       
  46 H46            1.1338     3.0995     0.5217 H       
  47 H47            2.0498     1.5734     0.5048 H       
  48 H48            1.8405     1.4752    -1.9640 H       
  49 H49            0.9244     3.0012    -1.9471 H       
  50 H50            3.3123     3.4025    -2.4816 H       
  51 H51            2.8690     4.1572    -0.9317 H       
  52 H52            3.7850     2.6312    -0.9487 H       
  53 H53           -3.5537     4.4130     0.0622 H       
  54 H54           -0.9512     4.3104     0.0418 H       
  55 H55           -5.4697     2.7298    -0.3642 H       
  56 H56           -5.0656     1.0046    -0.5338 H       
  57 H57            2.6985    -2.7126     2.0931 H       
  58 H58            6.1225    -4.0619    -0.1006 H       
  59 H59            4.9444    -3.5934    -2.2092 H       
  60 H60            2.6546    -2.6949    -2.1702 H       
  61 H61           -5.6895     3.7437     1.9087 H       
  62 H62           -5.4419     2.7408     3.3583 H       
  63 H63           -4.0575     3.1669     2.3238 H       
  64 H64           -7.0089     0.4066     0.9183 H       
  65 H65           -7.1654     1.1289     2.5375 H       
  66 H66           -7.4130     2.1318     1.0879 H       
  67 H67           -3.4903     0.7453     2.0857 H       
  68 H68           -4.8747     0.3193     3.1202 H       
  69 H69           -4.7181    -0.4030     1.5009 H       
@<TRIPOS>BOND
   1    1    2 ar
   2    1   20 1
   3    1    6 ar
   4    2    3 ar
   5    2    7 1
   6    3    4 ar
   7    3   37 1
   8    4    5 ar
   9    4   38 1
  10    5    6 ar
  11    5   23 1
  12    6   25 1
  13    7    8 1
  14    8   27 1
  15    8   39 1
  16    8   40 1
  17    9   10 ar
  18    9   14 ar
  19    9   29 1
  20   10   11 ar
  21   10   41 1
  22   11   12 ar
  23   11   15 1
  24   12   13 ar
  25   12   42 1
  26   13   14 ar
  27   13   43 1
  28   14   44 1
  29   15   16 2
  30   15   19 1
  31   16   17 1
  32   17   18 2
  33   18   19 1
  34   19   45 1
  35   20   21 1
  36   20   46 1
  37   20   47 1
  38   21   22 1
  39   21   48 1
  40   21   49 1
  41   22   50 1
  42   22   51 1
  43   22   52 1
  44   23   24 1
  45   23   26 1
  46   24   25 2
  47   24   53 1
  48   25   54 1
  49   26   33 1
  50   26   55 1
  51   26   56 1
  52   27   28 ar
  53   27   32 ar
  54   28   29 ar
  55   28   57 1
  56   29   30 ar
  57   30   31 ar
  58   30   58 1
  59   31   32 ar
  60   31   59 1
  61   32   60 1
  62   33   34 1
  63   33   35 1
  64   33   36 1
  65   34   61 1
  66   34   62 1
  67   34   63 1
  68   35   64 1
  69   35   65 1
  70   35   66 1
  71   36   67 1
  72   36   68 1
  73   36   69 1

#	End of record

