#	Name: ASD01911549
#	Creating user name:	WinNT
#	Creation time:	15. 06. 2019 19:58

#	Modifying user name:	WinNT
#	Modification time:	15. 06. 2019 19:58

#	Program:	/corina/corina34_cracker 3.40 0067  02.08.2006

@<TRIPOS>MOLECULE
ASD01911549
  42   44    0    0    0
SMALL
NO_CHARGES


@<TRIPOS>ATOM
   1 N1            -0.0167     1.4633    -0.0144 N.am    
   2 C2             0.0052    -0.0057    -0.0008 C.3     
   3 C3            -0.8242    -0.5221    -1.1808 C.3     
   4 C4            -2.2271     0.0862    -1.1180 C.3     
   5 C5            -2.1297     1.6097    -1.2261 C.3     
   6 C6            -1.3152     2.1503    -0.0411 C.3     
   7 C7             1.1324     2.1674     0.0029 C.2     
   8 C8             1.0969     3.6703    -0.1025 C.3     
   9 C9             2.2312     4.2983     0.7221 C.3     
  10 S10            1.4697     4.2041    -1.8041 S.3     
  11 C11            2.9251     5.1162    -1.3870 C.2     
  12 N12            3.1373     5.0487    -0.1183 N.2     
  13 C13            3.7467     5.8253    -2.3212 C.1     
  14 C14            4.4203     6.4066    -3.0871 C.1     
  15 C15            5.2419     7.1156    -4.0214 C.ar    
  16 C16            6.3741     7.8055    -3.5787 C.ar    
  17 C17            7.1605     8.4861    -4.4843 C.ar    
  18 C18            6.8311     8.4872    -5.8284 C.ar    
  19 C19            5.7117     7.8064    -6.2743 C.ar    
  20 C20            4.9189     7.1165    -5.3813 C.ar    
  21 O21            2.1950     1.5915     0.1032 O.2     
  22 C22           -3.0692    -0.4542    -2.2755 C.3     
  23 H23            1.0328    -0.3567    -0.0951 H       
  24 H24           -0.4229    -0.3689     0.9335 H       
  25 H25           -0.3444    -0.2344    -2.1163 H       
  26 H26           -0.8959    -1.6084    -1.1272 H       
  27 H27           -2.6969    -0.1814    -0.1715 H       
  28 H28           -1.6377     1.8773    -2.1612 H       
  29 H29           -3.1307     2.0406    -1.2048 H       
  30 H30           -1.8532     1.9623     0.8881 H       
  31 H31           -1.1579     3.2218    -0.1643 H       
  32 H32            0.1291     4.0543     0.2202 H       
  33 H33            1.8022     4.9654     1.4698 H       
  34 H34            2.7852     3.5074     1.2278 H       
  35 H35            6.6322     7.8058    -2.5299 H       
  36 H36            8.0354     9.0199    -4.1437 H       
  37 H37            7.4505     9.0223    -6.5330 H       
  38 H38            5.4610     7.8118    -7.3247 H       
  39 H39            4.0457     6.5857    -5.7307 H       
  40 H40           -3.1397    -1.5391    -2.1979 H       
  41 H41           -4.0685    -0.0210    -2.2309 H       
  42 H42           -2.5994    -0.1873    -3.2221 H       
@<TRIPOS>BOND
   1    1    2 1
   2    1    7 am
   3    1    6 1
   4    2    3 1
   5    2   23 1
   6    2   24 1
   7    3    4 1
   8    3   25 1
   9    3   26 1
  10    4    5 1
  11    4   22 1
  12    4   27 1
  13    5    6 1
  14    5   28 1
  15    5   29 1
  16    6   30 1
  17    6   31 1
  18    7    8 1
  19    7   21 2
  20    8    9 1
  21    8   10 1
  22    8   32 1
  23    9   12 1
  24    9   33 1
  25    9   34 1
  26   10   11 1
  27   11   12 2
  28   11   13 1
  29   13   14 3
  30   14   15 1
  31   15   16 ar
  32   15   20 ar
  33   16   17 ar
  34   16   35 1
  35   17   18 ar
  36   17   36 1
  37   18   19 ar
  38   18   37 1
  39   19   20 ar
  40   19   38 1
  41   20   39 1
  42   22   40 1
  43   22   41 1
  44   22   42 1

#	End of record

