#	Name: ASD09890019
#	Creating user name:	WinNT
#	Creation time:	15. 06. 2019 21:24

#	Modifying user name:	WinNT
#	Modification time:	15. 06. 2019 21:24

#	Program:	/corina/corina34_cracker 3.40 0067  02.08.2006

@<TRIPOS>MOLECULE
ASD09890019
  33   35    0    0    0
SMALL
NO_CHARGES


@<TRIPOS>ATOM
   1 N1            -0.0154     1.2809     0.0091 N.2     
   2 N2             0.0021    -0.0041     0.0020 N.2     
   3 C3             1.2424    -0.4345    -0.0121 C.2     
   4 N4             2.0491     0.6702    -0.0139 N.pl3   
   5 C5             1.2017     1.7463    -0.0000 C.2     
   6 S6             1.7680    -2.1163    -0.0257 S.3     
   7 C7             3.4513     0.6957    -0.0268 C.ar    
   8 C8             4.1457     0.2068    -1.1248 C.ar    
   9 C9             5.5266     0.2336    -1.1348 C.ar    
  10 C10            6.2174     0.7464    -0.0523 C.ar    
  11 C11            5.5284     1.2342     1.0429 C.ar    
  12 C12            4.1473     1.2152     1.0561 C.ar    
  13 C13            1.6026     3.1990     0.0035 C.3     
  14 O14            1.7426     3.6513     1.3518 O.3     
  15 C15            2.1028     4.9491     1.5330 C.ar    
  16 C16            2.2567     5.4549     2.8156 C.ar    
  17 C17            2.6229     6.7745     2.9972 C.ar    
  18 C18            2.8358     7.5910     1.9019 C.ar    
  19 C19            2.6826     7.0895     0.6225 C.ar    
  20 C20            2.3226     5.7689     0.4356 C.ar    
  21 H21            1.8282    -2.3428    -1.4161 H       
  22 H22            3.6067    -0.1945    -1.9703 H       
  23 H23            6.0674    -0.1466    -1.9889 H       
  24 H24            7.2972     0.7658    -0.0621 H       
  25 H25            6.0706     1.6338     1.8871 H       
  26 H26            3.6096     1.6000     1.9100 H       
  27 H27            2.5521     3.3152    -0.5191 H       
  28 H28            0.8364     3.7886    -0.4998 H       
  29 H29            2.0902     4.8176     3.6715 H       
  30 H30            2.7425     7.1688     3.9955 H       
  31 H31            3.1220     8.6224     2.0459 H       
  32 H32            2.8488     7.7295    -0.2314 H       
  33 H33            2.2077     5.3763    -0.5639 H       
@<TRIPOS>BOND
   1    1    2 1
   2    1    5 2
   3    2    3 2
   4    3    4 1
   5    3    6 1
   6    4    5 1
   7    4    7 1
   8    5   13 1
   9    6   21 1
  10    7    8 ar
  11    7   12 ar
  12    8    9 ar
  13    8   22 1
  14    9   10 ar
  15    9   23 1
  16   10   11 ar
  17   10   24 1
  18   11   12 ar
  19   11   25 1
  20   12   26 1
  21   13   14 1
  22   13   27 1
  23   13   28 1
  24   14   15 1
  25   15   16 ar
  26   15   20 ar
  27   16   17 ar
  28   16   29 1
  29   17   18 ar
  30   17   30 1
  31   18   19 ar
  32   18   31 1
  33   19   20 ar
  34   19   32 1
  35   20   33 1

#	End of record

