#	Name: ASD01912167
#	Creating user name:	WinNT
#	Creation time:	15. 06. 2019 19:59

#	Modifying user name:	WinNT
#	Modification time:	15. 06. 2019 19:59

#	Program:	/corina/corina34_cracker 3.40 0067  02.08.2006

@<TRIPOS>MOLECULE
ASD01912167
  42   45    0    0    0
SMALL
NO_CHARGES


@<TRIPOS>ATOM
   1 C1            -0.0184     1.5028     0.0103 C.3     
   2 C2             0.0021    -0.0041     0.0020 C.2     
   3 O3             0.5655    -0.7854    -0.9247 O.3     
   4 N4             0.4056    -1.9527    -0.6369 N.2     
   5 C5            -0.2637    -2.0520     0.4820 C.2     
   6 N6            -0.5240    -0.7942     0.9045 N.2     
   7 C7            -0.6587    -3.3099     1.1637 C.ar    
   8 C8            -0.3144    -4.5416     0.6119 C.ar    
   9 C9            -0.6847    -5.7093     1.2508 C.ar    
  10 C10           -1.3964    -5.6559     2.4368 C.ar    
  11 C11           -1.7403    -4.4348     2.9882 C.ar    
  12 C12           -1.3702    -3.2626     2.3609 C.ar    
  13 C13            1.4178     2.0757    -0.0003 C.3     
  14 Cl14          -0.2574    -7.2457     0.5649 Cl      
  15 C15            1.3205     3.3047    -0.8772 C.2     
  16 N16            0.1863     3.2697    -1.5978 N.am    
  17 C17           -0.5877     2.0552    -1.3152 C.3     
  18 O18            2.1455     4.1926    -0.9228 O.2     
  19 C19           -0.2067     4.2652    -2.5023 C.ar    
  20 C20           -0.9826     5.3371    -2.0673 C.ar    
  21 C21           -1.3683     6.3185    -2.9661 C.ar    
  22 C22           -0.9833     6.2326    -4.2911 C.ar    
  23 C23           -0.2134     5.1685    -4.7237 C.ar    
  24 C24            0.1806     4.1888    -3.8322 C.ar    
  25 O25           -1.3610     5.4200    -0.7639 O.3     
  26 C26           -2.1559     6.5469    -0.3895 C.3     
  27 H27           -0.5819     1.8786     0.8643 H       
  28 H28            0.2406    -4.5838    -0.3136 H       
  29 H29           -1.6845    -6.5708     2.9332 H       
  30 H30           -2.2957    -4.3987     3.9137 H       
  31 H31           -1.6392    -2.3099     2.7928 H       
  32 H32            1.7265     2.3503     1.0084 H       
  33 H33            2.1131     1.3546    -0.4300 H       
  34 H34           -0.4536     1.3277    -2.1157 H       
  35 H35           -1.6437     2.2994    -1.1995 H       
  36 H36           -1.9702     7.1505    -2.6317 H       
  37 H37           -1.2849     6.9984    -4.9903 H       
  38 H38            0.0844     5.1052    -5.7599 H       
  39 H39            0.7819     3.3588    -4.1728 H       
  40 H40           -1.6041     7.4646    -0.5932 H       
  41 H41           -3.0823     6.5449    -0.9638 H       
  42 H42           -2.3877     6.4908     0.6741 H       
@<TRIPOS>BOND
   1    1    2 1
   2    1   13 1
   3    1   17 1
   4    1   27 1
   5    2    3 1
   6    2    6 2
   7    3    4 1
   8    4    5 2
   9    5    6 1
  10    5    7 1
  11    7    8 ar
  12    7   12 ar
  13    8    9 ar
  14    8   28 1
  15    9   10 ar
  16    9   14 1
  17   10   11 ar
  18   10   29 1
  19   11   12 ar
  20   11   30 1
  21   12   31 1
  22   13   15 1
  23   13   32 1
  24   13   33 1
  25   15   16 am
  26   15   18 2
  27   16   17 1
  28   16   19 1
  29   17   34 1
  30   17   35 1
  31   19   20 ar
  32   19   24 ar
  33   20   21 ar
  34   20   25 1
  35   21   22 ar
  36   21   36 1
  37   22   23 ar
  38   22   37 1
  39   23   24 ar
  40   23   38 1
  41   24   39 1
  42   25   26 1
  43   26   40 1
  44   26   41 1
  45   26   42 1

#	End of record

