#	Name: ASD03180076
#	Creating user name:	WinNT
#	Creation time:	15. 06. 2019 20:33

#	Modifying user name:	WinNT
#	Modification time:	15. 06. 2019 20:33

#	Program:	/corina/corina34_cracker 3.40 0067  02.08.2006

@<TRIPOS>MOLECULE
ASD03180076
  43   45    0    0    0
SMALL
NO_CHARGES


@<TRIPOS>ATOM
   1 C1             0.0728     1.3082     0.0093 C.ar    
   2 C2            -1.1403    -0.7490     0.2307 C.ar    
   3 C3            -2.3371    -0.0508     0.1341 C.ar    
   4 C4            -2.3252     1.3273    -0.0357 C.ar    
   5 C5            -1.1236     2.0056    -0.0927 C.ar    
   6 C6             0.0610    -0.0716     0.1685 C.ar    
   7 N7            -3.5550    -0.7376     0.1967 N.pl3   
   8 C8            -3.5694    -2.2023     0.2229 C.3     
   9 C9            -4.8154     0.0082     0.2361 C.3     
  10 C10           -1.1108     3.5026    -0.2650 C.3     
  11 N11            1.2914     1.9953    -0.0544 N.pl3   
  12 C12            2.4170     1.3644    -0.5599 C.2     
  13 N13            3.6183     1.8541    -0.5493 N.2     
  14 S14            2.4391    -0.2289    -1.3090 S.3     
  15 C15            4.1761    -0.0872    -1.5677 C.2     
  16 C16            4.5801     1.1012    -1.0824 C.2     
  17 C17            5.9917     1.5398    -1.1352 C.2     
  18 S18            7.3374     0.6282    -1.8154 S.3     
  19 C19            8.4120     1.8956    -1.4141 C.2     
  20 N20            7.7752     2.8600    -0.8398 N.2     
  21 C21            6.4781     2.7127    -0.6759 C.2     
  22 C22            5.6107     3.7610    -0.0280 C.3     
  23 C23            9.8933     1.8879    -1.6915 C.3     
  24 H24           -1.1496    -1.8209     0.3628 H       
  25 H25           -3.2558     1.8702    -0.1112 H       
  26 H26            0.9916    -0.6146     0.2433 H       
  27 H27           -3.5303    -2.5476     1.2560 H       
  28 H28           -4.4835    -2.5651    -0.2471 H       
  29 H29           -2.7052    -2.5839    -0.3207 H       
  30 H30           -4.6041     1.0752     0.3072 H       
  31 H31           -5.3833    -0.1900    -0.6729 H       
  32 H32           -5.3964    -0.3057     1.1032 H       
  33 H33           -1.1257     3.9812     0.7142 H       
  34 H34           -0.2089     3.7990    -0.8005 H       
  35 H35           -1.9886     3.8105    -0.8332 H       
  36 H36            1.3476     2.9128     0.2554 H       
  37 H37            4.8090    -0.8289    -2.0323 H       
  38 H38            5.5691     3.5846     1.0468 H       
  39 H39            6.0310     4.7486    -0.2181 H       
  40 H40            4.6047     3.7080    -0.4442 H       
  41 H41           10.0810     2.3197    -2.6746 H       
  42 H42           10.4083     2.4760    -0.9319 H       
  43 H43           10.2618     0.8623    -1.6687 H       
@<TRIPOS>BOND
   1    1    6 ar
   2    1   11 1
   3    1    5 ar
   4    2    3 ar
   5    2    6 ar
   6    2   24 1
   7    3    4 ar
   8    3    7 1
   9    4    5 ar
  10    4   25 1
  11    5   10 1
  12    6   26 1
  13    7    8 1
  14    7    9 1
  15    8   27 1
  16    8   28 1
  17    8   29 1
  18    9   30 1
  19    9   31 1
  20    9   32 1
  21   10   33 1
  22   10   34 1
  23   10   35 1
  24   11   12 1
  25   11   36 1
  26   12   14 1
  27   12   13 2
  28   13   16 1
  29   14   15 1
  30   15   16 2
  31   15   37 1
  32   16   17 1
  33   17   18 1
  34   17   21 2
  35   18   19 1
  36   19   20 2
  37   19   23 1
  38   20   21 1
  39   21   22 1
  40   22   38 1
  41   22   39 1
  42   22   40 1
  43   23   41 1
  44   23   42 1
  45   23   43 1

#	End of record

