#	Name: ASD03092537
#	Creating user name:	WinNT
#	Creation time:	15. 06. 2019 20:32

#	Modifying user name:	WinNT
#	Modification time:	15. 06. 2019 20:32

#	Program:	/corina/corina34_cracker 3.40 0067  02.08.2006

@<TRIPOS>MOLECULE
ASD03092537
  37   39    0    0    0
SMALL
NO_CHARGES


@<TRIPOS>ATOM
   1 N1            -0.0169     1.3952     0.0097 N.pl3   
   2 N2             0.0021    -0.0041     0.0020 N.am    
   3 C3             1.2890    -0.4079    -0.0124 C.2     
   4 C4             2.1184     0.8019    -0.0139 C.2     
   5 C5             1.2766     1.8640    -0.0001 C.2     
   6 C6             1.6815     3.2911     0.0029 C.2     
   7 O7             0.8352     4.1626     0.0150 O.2     
   8 N8             2.9883     3.6209    -0.0077 N.am    
   9 O9             1.6866    -1.5579    -0.0221 O.2     
  10 C10            3.3881     5.0303    -0.0047 C.3     
  11 N11            8.9999     5.3907    -0.3286 N.pl3   
  12 C12            9.1555     5.4078    -1.6879 C.2     
  13 C13            7.9563     5.3336    -2.2867 C.2     
  14 C14            6.9506     5.2634    -1.2240 C.ar    
  15 C15            5.5572     5.1744    -1.2107 C.ar    
  16 C16            4.8920     5.1258    -0.0183 C.ar    
  17 C17            5.5904     5.1641     1.1810 C.ar    
  18 C18            6.9650     5.2522     1.1909 C.ar    
  19 C19            7.6629     5.3030    -0.0116 C.ar    
  20 C20           10.4772     5.4971    -2.4064 C.3     
  21 C21           -1.1728    -0.8791     0.0090 C.3     
  22 H22           -0.8148     1.9467     0.0167 H       
  23 H23            3.1977     0.8394    -0.0240 H       
  24 H24            3.6640     2.9251    -0.0173 H       
  25 H25            2.9847     5.5243    -0.8886 H       
  26 H26            3.0013     5.5158     0.8913 H       
  27 H27            9.7239     5.4304     0.3157 H       
  28 H28            7.7686     5.3270    -3.3503 H       
  29 H29            5.0072     5.1450    -2.1396 H       
  30 H30            5.0505     5.1248     2.1155 H       
  31 H31            7.4993     5.2818     2.1291 H       
  32 H32           10.8621     4.4931    -2.5852 H       
  33 H33           10.3390     6.0083    -3.3591 H       
  34 H34           11.1864     6.0544    -1.7945 H       
  35 H35           -1.4744    -1.0907    -1.0169 H       
  36 H36           -0.9276    -1.8127     0.5154 H       
  37 H37           -1.9907    -0.3852     0.5336 H       
@<TRIPOS>BOND
   1    1    2 1
   2    1    5 1
   3    1   22 1
   4    2    3 am
   5    2   21 1
   6    3    4 1
   7    3    9 2
   8    4    5 2
   9    4   23 1
  10    5    6 1
  11    6    7 2
  12    6    8 am
  13    8   10 1
  14    8   24 1
  15   10   16 1
  16   10   25 1
  17   10   26 1
  18   11   12 1
  19   11   19 1
  20   11   27 1
  21   12   13 2
  22   12   20 1
  23   13   14 1
  24   13   28 1
  25   14   15 ar
  26   14   19 ar
  27   15   16 ar
  28   15   29 1
  29   16   17 ar
  30   17   18 ar
  31   17   30 1
  32   18   19 ar
  33   18   31 1
  34   20   32 1
  35   20   33 1
  36   20   34 1
  37   21   35 1
  38   21   36 1
  39   21   37 1

#	End of record

