#	Name: ASD05170037
#	Creating user name:	WinNT
#	Creation time:	15. 06. 2019 20:57

#	Modifying user name:	WinNT
#	Modification time:	15. 06. 2019 20:57

#	Program:	/corina/corina34_cracker 3.40 0067  02.08.2006

@<TRIPOS>MOLECULE
ASD05170037
  42   45    0    0    0
SMALL
NO_CHARGES


@<TRIPOS>ATOM
   1 C1            -0.0167     1.3795     0.0096 C.ar    
   2 C2             0.0021    -0.0041     0.0020 C.ar    
   3 C3             1.2320    -0.6497    -0.0132 C.ar    
   4 C4             2.3901     0.1036    -0.0202 C.ar    
   5 N5             2.3390     1.4222    -0.0126 N.ar    
   6 C6             1.1874     2.0721     0.0018 C.ar    
   7 Cl7            1.3129    -2.3838    -0.0227 Cl      
   8 O8             1.1819     3.4291     0.0092 O.3     
   9 C9             2.4525     4.0830     0.0006 C.3     
  10 C10            2.2490     5.5762     0.0105 C.2     
  11 C11            1.0148     6.2398     0.0315 C.2     
  12 N12            3.1966     6.4846     0.0068 N.2     
  13 N13            2.7018     7.6600     0.0262 N.pl3   
  14 C14            1.3272     7.5694     0.0308 C.2     
  15 C15            0.4817     8.7728     0.0517 C.2     
  16 C16            3.3771     8.9630     0.0567 C.3     
  17 C17            2.4958    10.0036    -0.6327 C.3     
  18 N18            1.1090     9.9523    -0.1757 N.am    
  19 C19            3.6184     9.3795     1.5090 C.3     
  20 O20           -0.7150     8.7125     0.2612 O.2     
  21 C21            0.4143    11.1487     0.0369 C.ar    
  22 C22           -0.2563    12.9568     1.4415 C.ar    
  23 C23            0.4474    11.7730     1.2795 C.ar    
  24 C24           -0.3154    11.7349    -0.9937 C.ar    
  25 N25           -0.9706    12.8627    -0.7957 N.ar    
  26 C26           -0.9618    13.4752     0.3733 C.ar    
  27 F27           -0.3526    11.1435    -2.2078 F       
  28 H28           -0.9552     1.9140     0.0170 H       
  29 H29           -0.9183    -0.5690     0.0081 H       
  30 H30            3.3492    -0.3929    -0.0317 H       
  31 H31            3.0191     3.7876     0.8836 H       
  32 H32            3.0021     3.7972    -0.8962 H       
  33 H33            0.0303     5.7960     0.0449 H       
  34 H34            4.3312     8.8907    -0.4653 H       
  35 H35            2.8972    10.9962    -0.4288 H       
  36 H36            2.5209     9.8296    -1.7085 H       
  37 H37            4.2439     8.6348     2.0014 H       
  38 H38            4.1199    10.3470     1.5310 H       
  39 H39            2.6635     9.4532     2.0294 H       
  40 H40           -0.2524    13.4682     2.3927 H       
  41 H41            1.0072    11.3458     2.0983 H       
  42 H42           -1.5112    14.3970     0.4953 H       
@<TRIPOS>BOND
   1    1    2 ar
   2    1    6 ar
   3    1   28 1
   4    2    3 ar
   5    2   29 1
   6    3    4 ar
   7    3    7 1
   8    4    5 ar
   9    4   30 1
  10    5    6 ar
  11    6    8 1
  12    8    9 1
  13    9   10 1
  14    9   31 1
  15    9   32 1
  16   10   12 2
  17   10   11 1
  18   11   14 2
  19   11   33 1
  20   12   13 1
  21   13   16 1
  22   13   14 1
  23   14   15 1
  24   15   18 am
  25   15   20 2
  26   16   17 1
  27   16   19 1
  28   16   34 1
  29   17   18 1
  30   17   35 1
  31   17   36 1
  32   18   21 1
  33   19   37 1
  34   19   38 1
  35   19   39 1
  36   21   24 ar
  37   21   23 ar
  38   22   23 ar
  39   22   26 ar
  40   22   40 1
  41   23   41 1
  42   24   25 ar
  43   24   27 1
  44   25   26 ar
  45   26   42 1

#	End of record

