#	Name: ASD03430447
#	Creating user name:	WinNT
#	Creation time:	15. 06. 2019 20:41

#	Modifying user name:	WinNT
#	Modification time:	15. 06. 2019 20:41

#	Program:	/corina/corina34_cracker 3.40 0067  02.08.2006

@<TRIPOS>MOLECULE
ASD03430447
  42   45    0    0    0
SMALL
NO_CHARGES


@<TRIPOS>ATOM
   1 N1             0.0059     1.5327     0.2586 N.am    
   2 C2             0.3531     0.8186     1.3433 C.2     
   3 C3             1.8438     0.9050     1.4828 C.2     
   4 C4             2.2802     1.7456     0.3550 C.ar    
   5 C5             3.5328     2.1967    -0.0705 C.ar    
   6 C6             3.6258     2.9946    -1.1976 C.ar    
   7 C7             2.4836     3.3419    -1.8963 C.ar    
   8 C8             1.2396     2.9000    -1.4825 C.ar    
   9 C9             1.1208     2.0986    -0.3557 C.ar    
  10 O10           -0.4019     0.2147     2.0761 O.2     
  11 O11            2.5381     0.3947     2.3377 O.2     
  12 C12            0.0083     3.2905    -2.2587 C.3     
  13 F13            4.6463     1.8564     0.6147 F       
  14 C14           -1.3696     1.6905    -0.2203 C.3     
  15 C15           -1.5217     0.9958    -1.5490 C.ar    
  16 C16           -2.3887     1.5029    -2.4988 C.ar    
  17 C17           -2.5282     0.8657    -3.7176 C.ar    
  18 C18           -1.8004    -0.2783    -3.9867 C.ar    
  19 C19           -0.9328    -0.7849    -3.0373 C.ar    
  20 C20           -0.7900    -0.1452    -1.8202 C.ar    
  21 C21           -2.3216     1.0817     0.7767 C.ar    
  22 C22           -3.2308     1.8825     1.4423 C.ar    
  23 C23           -4.1040     1.3241     2.3568 C.ar    
  24 C24           -4.0684    -0.0352     2.6055 C.ar    
  25 C25           -3.1599    -0.8362     1.9392 C.ar    
  26 C26           -2.2896    -0.2784     1.0215 C.ar    
  27 H27            4.5906     3.3465    -1.5316 H       
  28 H28            2.5637     3.9654    -2.7745 H       
  29 H29           -0.2472     2.4952    -2.9589 H       
  30 H30           -0.8211     3.4478    -1.5692 H       
  31 H31            0.2026     4.2108    -2.8094 H       
  32 H32           -1.5944     2.7507    -0.3368 H       
  33 H33           -2.9573     2.3967    -2.2885 H       
  34 H34           -3.2061     1.2614    -4.4593 H       
  35 H35           -1.9100    -0.7766    -4.9386 H       
  36 H36           -0.3644    -1.6789    -3.2474 H       
  37 H37           -0.1093    -0.5389    -1.0798 H       
  38 H38           -3.2585     2.9446     1.2480 H       
  39 H39           -4.8138     1.9499     2.8774 H       
  40 H40           -4.7502    -0.4714     3.3206 H       
  41 H41           -3.1319    -1.8982     2.1338 H       
  42 H42           -1.5823    -0.9048     0.4982 H       
@<TRIPOS>BOND
   1    1    2 am
   2    1    9 1
   3    1   14 1
   4    2    3 1
   5    2   10 2
   6    3    4 1
   7    3   11 2
   8    4    5 ar
   9    4    9 ar
  10    5    6 ar
  11    5   13 1
  12    6    7 ar
  13    6   27 1
  14    7    8 ar
  15    7   28 1
  16    8    9 ar
  17    8   12 1
  18   12   29 1
  19   12   30 1
  20   12   31 1
  21   14   15 1
  22   14   21 1
  23   14   32 1
  24   15   16 ar
  25   15   20 ar
  26   16   17 ar
  27   16   33 1
  28   17   18 ar
  29   17   34 1
  30   18   19 ar
  31   18   35 1
  32   19   20 ar
  33   19   36 1
  34   20   37 1
  35   21   22 ar
  36   21   26 ar
  37   22   23 ar
  38   22   38 1
  39   23   24 ar
  40   23   39 1
  41   24   25 ar
  42   24   40 1
  43   25   26 ar
  44   25   41 1
  45   26   42 1

#	End of record

