#	Name: ASD02230006
#	Creating user name:	WinNT
#	Creation time:	15. 06. 2019 20:20

#	Modifying user name:	WinNT
#	Modification time:	15. 06. 2019 20:20

#	Program:	/corina/corina34_cracker 3.40 0067  02.08.2006

@<TRIPOS>MOLECULE
ASD02230006
  34   35    0    0    0
SMALL
NO_CHARGES


@<TRIPOS>ATOM
   1 C1            -0.0167     1.3811     0.0096 C.ar    
   2 C2             0.0021    -0.0041     0.0020 C.ar    
   3 C3             1.2285    -0.6823    -0.0134 C.ar    
   4 C4             2.4203     0.0461    -0.0209 C.ar    
   5 C5             2.3833     1.4246    -0.0131 C.ar    
   6 C6             1.1695     2.0904     0.0021 C.ar    
   7 N7             3.6468     2.1958    -0.0211 N.pl3   
   8 O8             4.7161     1.6128    -0.0345 O.2     
   9 O9             3.6171     3.4134    -0.0143 O.2     
  10 C10            1.2605    -2.1556    -0.0211 C.2     
  11 N11            0.1507    -2.8290    -0.0137 N.2     
  12 N12            0.1811    -4.2296    -0.0210 N.am    
  13 C13           -0.9711    -4.9288    -0.0133 C.2     
  14 C14           -0.9392    -6.4010    -0.0210 C.ar    
  15 O15           -2.0377    -4.3435     0.0001 O.2     
  16 C16            0.2850    -7.0766    -0.0364 C.ar    
  17 C17            0.3107    -8.4522    -0.0436 C.ar    
  18 C18           -0.8781    -9.1753    -0.0361 C.ar    
  19 C19           -2.0982    -8.5153    -0.0213 C.ar    
  20 C20           -2.1373    -7.1320    -0.0072 C.ar    
  21 O21           -0.8438   -10.5321    -0.0438 O.3     
  22 O22           -3.3295    -6.4847     0.0078 O.3     
  23 O23           -1.1630    -0.7019     0.0099 O.3     
  24 H24           -0.9597     1.9075     0.0170 H       
  25 H25            3.3692    -0.4694    -0.0324 H       
  26 H26            1.1494     3.1701     0.0081 H       
  27 H27            2.2073    -2.6752    -0.0330 H       
  28 H28            1.0314    -4.6963    -0.0317 H       
  29 H29            1.2099    -6.5189    -0.0429 H       
  30 H30            1.2569    -8.9727    -0.0554 H       
  31 H31           -3.0180    -9.0813    -0.0159 H       
  32 H32           -0.8254   -10.9300     0.8374 H       
  33 H33           -3.6689    -6.3059     0.8954 H       
  34 H34           -1.5092    -0.8993    -0.8712 H       
@<TRIPOS>BOND
   1    1    2 ar
   2    1    6 ar
   3    1   24 1
   4    2    3 ar
   5    2   23 1
   6    3    4 ar
   7    3   10 1
   8    4    5 ar
   9    4   25 1
  10    5    6 ar
  11    5    7 1
  12    6   26 1
  13    7    8 2
  14    7    9 2
  15   10   11 2
  16   10   27 1
  17   11   12 1
  18   12   13 am
  19   12   28 1
  20   13   14 1
  21   13   15 2
  22   14   16 ar
  23   14   20 ar
  24   16   17 ar
  25   16   29 1
  26   17   18 ar
  27   17   30 1
  28   18   19 ar
  29   18   21 1
  30   19   20 ar
  31   19   31 1
  32   20   22 1
  33   21   32 1
  34   22   33 1
  35   23   34 1

#	End of record

