#	Name: ASD00170778
#	Creating user name:	WinNT
#	Creation time:	15. 06. 2019 18:32

#	Modifying user name:	WinNT
#	Modification time:	15. 06. 2019 18:32

#	Program:	/corina/corina34_cracker 3.40 0067  02.08.2006

@<TRIPOS>MOLECULE
ASD00170778
  60   64    0    0    0
SMALL
NO_CHARGES


@<TRIPOS>ATOM
   1 Cl1            3.5854     7.3049    -5.4589 Cl      
   2 C2             2.6490     7.0265    -4.0238 C.ar    
   3 C3             3.1490     6.2121    -3.0211 C.ar    
   4 C4             2.4099     5.9871    -1.8790 C.ar    
   5 C5             1.1550     6.5822    -1.7344 C.ar    
   6 C6             0.6563     7.4021    -2.7487 C.ar    
   7 C7             1.4072     7.6241    -3.8837 C.ar    
   8 C8             0.3574     6.3447    -0.5125 C.2     
   9 O9             0.7561     5.5644     0.3325 O.2     
  10 C10           -0.9136     7.0486    -0.3186 C.2     
  11 C11           -2.1349     6.4948    -0.6250 C.2     
  12 S12           -3.3912     7.5932    -0.2710 S.3     
  13 C13           -2.2536     8.8062     0.2940 C.2     
  14 C14           -0.9990     8.3437     0.2005 C.2     
  15 C15            0.2080     9.1487     0.6082 C.3     
  16 C16            0.4954     8.9205     2.0935 C.3     
  17 C17            0.7174     7.4280     2.3465 C.3     
  18 C18            1.7502     9.6981     2.4956 C.3     
  19 C19           -0.6940     9.4071     2.9238 C.3     
  20 C20           -2.6264    10.1424     0.8043 C.ar    
  21 C21           -2.0087    11.2850     0.2937 C.ar    
  22 C22           -2.3602    12.5301     0.7735 C.ar    
  23 C23           -3.3228    12.6498     1.7596 C.ar    
  24 C24           -3.9413    11.5215     2.2731 C.ar    
  25 C25           -3.6028    10.2675     1.7960 C.ar    
  26 F26           -4.2058     9.1667     2.2960 F       
  27 F27           -4.8803    11.6461     3.2364 F       
  28 N28           -2.3189     5.2234    -1.1481 N.am    
  29 C29           -2.3911     4.1003    -0.4112 C.2     
  30 O30           -2.3066     4.0398     0.7988 O.2     
  31 C31           -2.5910     2.9525    -1.3203 C.ar    
  32 C32           -2.6280     3.4934    -2.6220 C.ar    
  33 C33           -2.4543     4.9519    -2.4587 C.2     
  34 O34           -2.4315     5.7681    -3.3576 O.2     
  35 C35           -2.8062     2.6558    -3.7113 C.ar    
  36 C36           -2.9468     1.2911    -3.5131 C.ar    
  37 C37           -2.9105     0.7608    -2.2370 C.ar    
  38 C38           -2.7330     1.5863    -1.1377 C.ar    
  39 H39            4.1196     5.7521    -3.1342 H       
  40 H40            2.8007     5.3517    -1.0980 H       
  41 H41           -0.3138     7.8648    -2.6426 H       
  42 H42            1.0226     8.2581    -4.6689 H       
  43 H43            1.0698     8.8352     0.0190 H       
  44 H44            0.0145    10.2072     0.4340 H       
  45 H45            1.5648     7.0813     1.7550 H       
  46 H46            0.9222     7.2653     3.4047 H       
  47 H47           -0.1765     6.8739     2.0601 H       
  48 H48            1.5920    10.7614     2.3153 H       
  49 H49            1.9549     9.5355     3.5537 H       
  50 H50            2.5976     9.3515     1.9041 H       
  51 H51           -1.5631     8.7835     2.7138 H       
  52 H52           -0.4480     9.3423     3.9837 H       
  53 H53           -0.9184    10.4419     2.6654 H       
  54 H54           -1.2563    11.1947    -0.4757 H       
  55 H55           -1.8819    13.4140     0.3780 H       
  56 H56           -3.5932    13.6272     2.1311 H       
  57 H57           -2.8357     3.0646    -4.7106 H       
  58 H58           -3.0861     0.6376    -4.3616 H       
  59 H59           -3.0217    -0.3041    -2.0956 H       
  60 H60           -2.7051     1.1663    -0.1431 H       
@<TRIPOS>BOND
   1    1    2 1
   2    2    3 ar
   3    2    7 ar
   4    3    4 ar
   5    3   39 1
   6    4    5 ar
   7    4   40 1
   8    5    6 ar
   9    5    8 1
  10    6    7 ar
  11    6   41 1
  12    7   42 1
  13    8    9 2
  14    8   10 1
  15   10   11 2
  16   10   14 1
  17   11   12 1
  18   11   28 1
  19   12   13 1
  20   13   14 2
  21   13   20 1
  22   14   15 1
  23   15   16 1
  24   15   43 1
  25   15   44 1
  26   16   17 1
  27   16   18 1
  28   16   19 1
  29   17   45 1
  30   17   46 1
  31   17   47 1
  32   18   48 1
  33   18   49 1
  34   18   50 1
  35   19   51 1
  36   19   52 1
  37   19   53 1
  38   20   21 ar
  39   20   25 ar
  40   21   22 ar
  41   21   54 1
  42   22   23 ar
  43   22   55 1
  44   23   24 ar
  45   23   56 1
  46   24   25 ar
  47   24   27 1
  48   25   26 1
  49   28   29 am
  50   28   33 am
  51   29   30 2
  52   29   31 1
  53   31   32 ar
  54   31   38 ar
  55   32   33 1
  56   32   35 ar
  57   33   34 2
  58   35   36 ar
  59   35   57 1
  60   36   37 ar
  61   36   58 1
  62   37   38 ar
  63   37   59 1
  64   38   60 1

#	End of record

