#	Name: ASD01883048
#	Creating user name:	WinNT
#	Creation time:	15. 06. 2019 19:45

#	Modifying user name:	WinNT
#	Modification time:	15. 06. 2019 19:45

#	Program:	/corina/corina34_cracker 3.40 0067  02.08.2006

@<TRIPOS>MOLECULE
ASD01883048
  30   32    0    0    0
SMALL
NO_CHARGES


@<TRIPOS>ATOM
   1 N1            -0.0162     1.3415     0.0094 N.am    
   2 C2            -0.0567     0.0921    -0.4888 C.2     
   3 C3            -1.2735    -0.6298    -0.4881 C.2     
   4 C4            -2.4262    -0.0125     0.0417 C.2     
   5 C5            -2.3177     1.3011     0.5495 C.2     
   6 C6            -1.1264     1.9360     0.5259 C.2     
   7 O7             0.9546    -0.4175    -0.9410 O.2     
   8 C8            -1.3340    -1.9600    -1.0148 C.1     
   9 N9            -1.3820    -3.0153    -1.4327 N.1     
  10 C10            1.1953     2.0428     0.0016 C.ar    
  11 C11           -3.7123    -0.7208     0.0642 C.2     
  12 C12            2.0624     1.9461     1.0822 C.ar    
  13 C13            3.2571     2.6389     1.0712 C.ar    
  14 C14            3.5903     3.4283    -0.0142 C.ar    
  15 C15            2.7291     3.5268    -1.0917 C.ar    
  16 C16            1.5353     2.8324    -1.0892 C.ar    
  17 C17           -4.3886    -1.1001     1.1891 C.2     
  18 C18           -5.5714    -1.7497     0.9193 C.2     
  19 C19           -5.8539    -1.8972    -0.3796 C.2     
  20 S20           -4.6323    -1.2097    -1.3522 S.3     
  21 H21           -3.1857     1.7952     0.9604 H       
  22 H22           -1.0549     2.9403     0.9168 H       
  23 H23            1.8026     1.3300     1.9303 H       
  24 H24            3.9317     2.5643     1.9113 H       
  25 H25            4.5250     3.9694    -0.0202 H       
  26 H26            2.9921     4.1445    -1.9377 H       
  27 H27            0.8632     2.9097    -1.9310 H       
  28 H28           -4.0304    -0.9098     2.1900 H       
  29 H29           -6.2235    -2.1141     1.6992 H       
  30 H30           -6.7395    -2.3830    -0.7619 H       
@<TRIPOS>BOND
   1    1    2 am
   2    1   10 1
   3    1    6 1
   4    2    3 1
   5    2    7 2
   6    3    4 2
   7    3    8 1
   8    4    5 1
   9    4   11 1
  10    5    6 2
  11    5   21 1
  12    6   22 1
  13    8    9 3
  14   10   12 ar
  15   10   16 ar
  16   11   17 2
  17   11   20 1
  18   12   13 ar
  19   12   23 1
  20   13   14 ar
  21   13   24 1
  22   14   15 ar
  23   14   25 1
  24   15   16 ar
  25   15   26 1
  26   16   27 1
  27   17   18 1
  28   17   28 1
  29   18   19 2
  30   18   29 1
  31   19   20 1
  32   19   30 1

#	End of record

