#	Name: ASD03331746
#	Creating user name:	WinNT
#	Creation time:	15. 06. 2019 20:39

#	Modifying user name:	WinNT
#	Modification time:	15. 06. 2019 20:39

#	Program:	/corina/corina34_cracker 3.40 0067  02.08.2006

@<TRIPOS>MOLECULE
ASD03331746
  49   51    0    0    0
SMALL
NO_CHARGES


@<TRIPOS>ATOM
   1 Cl1            2.9175    -1.9990     4.8618 Cl      
   2 F2            -3.1432     0.3017   -12.5279 F       
   3 O3            -0.0173     1.4248     0.0099 O.3     
   4 O4            -0.0676    -0.9844    -7.1980 O.2     
   5 N5            -1.4365    -0.5727    -2.4364 N.3     
   6 C6             0.0021    -0.0041     0.0020 C.3     
   7 C7            -1.4339    -0.5354     0.0129 C.3     
   8 C8             0.7116    -0.4992    -1.2613 C.3     
   9 C9            -2.1533    -0.0730    -1.2563 C.3     
  10 C10           -0.0700    -0.0379    -2.4935 C.3     
  11 C11           -2.1738    -0.2658    -3.6693 C.3     
  12 C12            0.7334    -0.5045     1.2209 C.ar    
  13 C13           -1.2915    -0.5728    -4.8811 C.3     
  14 C14            1.7471     0.2527     1.7778 C.ar    
  15 C15            0.3865    -1.7180     1.7851 C.ar    
  16 C16           -2.0595    -0.2531    -6.1652 C.3     
  17 C17            2.4183    -0.2058     2.8957 C.ar    
  18 C18            1.0563    -2.1770     2.9035 C.ar    
  19 C19           -1.1905    -0.5555    -7.3587 C.2     
  20 C20            2.0751    -1.4225     3.4577 C.ar    
  21 C21           -1.7040    -0.3305    -8.7177 C.ar    
  22 C22           -0.8996    -0.6102    -9.8282 C.ar    
  23 C23           -3.0013     0.1590    -8.9067 C.ar    
  24 C24           -1.3869    -0.3971   -11.0988 C.ar    
  25 C25           -3.4763     0.3676   -10.1827 C.ar    
  26 C26           -2.6716     0.0941   -11.2791 C.ar    
  27 H27            1.7210    -0.0893    -1.2961 H       
  28 H28            0.7606    -1.5881    -1.2480 H       
  29 H29           -1.4187    -1.6247     0.0462 H       
  30 H30           -1.9575    -0.1512     0.8884 H       
  31 H31           -2.1804     1.0164    -1.2820 H       
  32 H32           -3.1717    -0.4616    -1.2585 H       
  33 H33            0.4248    -0.4010    -3.3943 H       
  34 H34           -0.1068     1.0512    -2.5135 H       
  35 H35           -3.0768    -0.8746    -3.7138 H       
  36 H36           -2.4465     0.7896    -3.6765 H       
  37 H37           -0.3885     0.0361    -4.8366 H       
  38 H38           -1.0189    -1.6281    -4.8739 H       
  39 H39            0.8606     1.8301     0.0037 H       
  40 H40            2.0149     1.2025     1.3391 H       
  41 H41           -0.4083    -2.3072     1.3520 H       
  42 H42           -2.9625    -0.8619    -6.2096 H       
  43 H43           -2.3321     0.8022    -6.1723 H       
  44 H44            3.2107     0.3856     3.3303 H       
  45 H45            0.7852    -3.1250     3.3442 H       
  46 H46            0.1010    -0.9920    -9.6892 H       
  47 H47           -3.6289     0.3723    -8.0540 H       
  48 H48           -0.7672    -0.6126   -11.9567 H       
  49 H49           -4.4774     0.7453   -10.3300 H       
@<TRIPOS>BOND
   1    1   20 1
   2    2   26 1
   3    3    6 1
   4    3   39 1
   5    4   19 2
   6    5    9 1
   7    5   10 1
   8    5   11 1
   9    6    7 1
  10    6    8 1
  11    6   12 1
  12    7    9 1
  13    7   29 1
  14    7   30 1
  15    8   10 1
  16    8   27 1
  17    8   28 1
  18    9   31 1
  19    9   32 1
  20   10   33 1
  21   10   34 1
  22   11   13 1
  23   11   35 1
  24   11   36 1
  25   12   14 ar
  26   12   15 ar
  27   13   16 1
  28   13   37 1
  29   13   38 1
  30   14   17 ar
  31   14   40 1
  32   15   18 ar
  33   15   41 1
  34   16   19 1
  35   16   42 1
  36   16   43 1
  37   17   20 ar
  38   17   44 1
  39   18   20 ar
  40   18   45 1
  41   19   21 1
  42   21   22 ar
  43   21   23 ar
  44   22   24 ar
  45   22   46 1
  46   23   25 ar
  47   23   47 1
  48   24   26 ar
  49   24   48 1
  50   25   26 ar
  51   25   49 1

#	End of record

